
Spectre (R) Circuit Simulator
Version 18.1.0.077 64bit -- 1 Aug 2018
Copyright (C) 1989-2018 Cadence Design Systems, Inc. All rights reserved worldwide. Cadence and Spectre are registered trademarks of Cadence Design Systems, Inc. All others are the property of their respective holders.

Includes RSA BSAFE(R) Cryptographic or Security Protocol Software from RSA Security, Inc.

User: IC   Host: IC   HostID: 7F0100   PID: 17618
Memory  available: 158.1834 MB  physical: 16.7718 GB
Linux   : CentOS Linux release 7.7.1908 (Core)
CPU Type: Intel(R) Core(TM) i9-14900HX
All processors running at 2419.2 MHz
        Socket: Processors
        0:       0,  1,  2,  3
        1:       4,  5,  6,  7
        2:       8,  9, 10, 11
        3:      12, 13, 14, 15

System load averages (1min, 5min, 15min) : 17.7 %, 14.1 %, 12.3 %
This is a virtual machine


Simulating `input.scs' on IC at 11:39:51 AM, Thur Jun 18, 2026 (process id: 17618).
Current working directory: /home/IC/simulation/SAR9B_400MV/TB_SUBMOD_CLK_NOOVERLAP_PERF/maestro/results/maestro/Interactive.4/1/TRAN/netlist
Environment variable:
    SPECTRE_DEFAULTS=-E
Command line:
    /opt/eda/cadence/SPECTRE181/tools.lnx86/bin/spectre -64 input.scs  \
        +escchars +log ../psf/spectre.out -format psfxl -raw ../psf  \
        +lqtimeout 900 -maxw 5 -maxn 5 -ahdllibdir  \
        /home/IC/simulation/SAR9B_400MV/TB_SUBMOD_CLK_NOOVERLAP_PERF/maestro/results/maestro/Interactive.4/sharedData/CDS/ahdl/input.ahdlSimDB  \
        +logstatus

Loading /opt/eda/cadence/SPECTRE181/tools.lnx86/cmi/lib/64bit/5.0/libinfineon_sh.so ...
Loading /opt/eda/cadence/SPECTRE181/tools.lnx86/cmi/lib/64bit/5.0/libphilips_o_sh.so ...
Loading /opt/eda/cadence/SPECTRE181/tools.lnx86/cmi/lib/64bit/5.0/libphilips_sh.so ...
Loading /opt/eda/cadence/SPECTRE181/tools.lnx86/cmi/lib/64bit/5.0/libsparam_sh.so ...
Loading /opt/eda/cadence/SPECTRE181/tools.lnx86/cmi/lib/64bit/5.0/libstmodels_sh.so ...
Reading file:  /home/IC/simulation/SAR9B_400MV/TB_SUBMOD_CLK_NOOVERLAP_PERF/maestro/results/maestro/Interactive.4/1/TRAN/netlist/input.scs
Reading file:  /opt/eda/cadence/SPECTRE181/tools.lnx86/spectre/etc/configs/mapsubckt.cfg
Reading file:  /opt/eda/cadence/SPECTRE181/tools.lnx86/spectre/etc/configs/spectre.cfg
Reading file:  /usr/include/stdc-predef.h
Reading file:  /home/IC/Desktop/Project/project_tsmcN28_NEW/project_tsmcN28_NEW/iPDK_CRN28HPC+_v1.0_2p2a_20160226_all/CRN28HPCp/models/spectre/toplevel.scs
Reading file:  /home/IC/Desktop/Project/project_tsmcN28_NEW/project_tsmcN28_NEW/iPDK_CRN28HPC+_v1.0_2p2a_20160226_all/CRN28HPCp/models/spectre/crn28hpcp_lct_1d8_elk_v1d0_2p2_shrink0d9_embedded_usage.scs
Reading file:  /home/IC/Desktop/Project/project_tsmcN28_NEW/project_tsmcN28_NEW/iPDK_CRN28HPC+_v1.0_2p2a_20160226_all/CRN28HPCp/models/spectre/crn28hpcp_lct_1d8_elk_v1d0_2p2.scs
Reading file:  /home/IC/Desktop/Project/project_tsmcN28_NEW/project_tsmcN28_NEW/iPDK_CRN28HPC+_v1.0_2p2a_20160226_all/CRN28HPCp/models/spectre/res_metal.scs
Reading file:  /home/IC/Desktop/Project/project_tsmcN28_NEW/project_tsmcN28_NEW/iPDK_CRN28HPC+_v1.0_2p2a_20160226_all/CRN28HPCp/models/spectre/cln28hpcp_hv_1d8_elk_v0d1_2p1_shrink0d9_embedded_usage.scs
Reading file:  /home/IC/Desktop/Project/project_tsmcN28_NEW/project_tsmcN28_NEW/iPDK_CRN28HPC+_v1.0_2p2a_20160226_all/CRN28HPCp/models/spectre/cln28hpcp_hv_1d8_elk_v0d1_2p1.scs
Time for NDB Parsing: CPU = 3.53248 s, elapsed = 1.96213 s.
Time accumulated: CPU = 3.60079 s, elapsed = 1.96216 s.
Peak resident memory used = 83.3 Mbytes.

Reading link:  /opt/eda/cadence/SPECTRE181/tools.lnx86/spectre/etc/ahdl/discipline.h
Reading file:  /opt/eda/cadence/SPECTRE181/tools.lnx86/spectre/etc/ahdl/disciplines.vams
Reading link:  /opt/eda/cadence/SPECTRE181/tools.lnx86/spectre/etc/ahdl/constants.h
Reading file:  /opt/eda/cadence/SPECTRE181/tools.lnx86/spectre/etc/ahdl/constants.vams

Warning from spectre during hierarchy flattening.
    WARNING (SFE-1131): Duplicate scope option `scalefactor' with scope `TopCircuit'. (using last value specified).
    WARNING (SFE-1131): Duplicate scope option `scalefactor' with scope `TopCircuit'. (using last value specified).
    WARNING (SFE-1131): Duplicate scope option `scalefactor' with scope `TopCircuit'. (using last value specified).
    WARNING (SFE-1131): Duplicate scope option `scalefactor' with scope `TopCircuit'. (using last value specified).

Time for Elaboration: CPU = 428.572 ms, elapsed = 214.288 ms.
Time accumulated: CPU = 4.03091 s, elapsed = 2.17721 s.
Peak resident memory used = 97.2 Mbytes.


Warning from spectre during hierarchy flattening.
    WARNING (SPECTRE-17101): The value 'psf' specified using the 'checklimitdest' option will no longer be supported in future releases.


Time for EDB Visiting: CPU = 12.22 ms, elapsed = 6.11091 ms.
Time accumulated: CPU = 4.04495 s, elapsed = 2.18424 s.
Peak resident memory used = 98.1 Mbytes.


Notice from spectre during topology check.
    Only one connection to node `0'.


Global user options:
         psfversion = 1.1.0
            vabstol = 1e-06
            iabstol = 1e-12
               temp = 27
               gmin = 1e-12
             rforce = 1
           maxnotes = 5
           maxwarns = 5
             digits = 5
               cols = 80
             pivrel = 0.001
           sensfile = ../psf/sens.output
     checklimitdest = psf
               save = allpub
        scalefactor = 0.9
        scalefactor = 0.9
        scalefactor = 0.9
        scalefactor = 0.9
        scalefactor = 0.9
             reltol = 0.001
               tnom = 27
             scalem = 1
              scale = 1

Scoped user options:

Circuit inventory:
              nodes 21
              bsim4 36
          capacitor 2
            vsource 3

Analysis and control statement inventory:
               info 7
               tran 1

Output statements:
             .probe 0
           .measure 0
               save 1

Time for parsing: CPU = 23.644 ms, elapsed = 12.5611 ms.
Time accumulated: CPU = 4.06987 s, elapsed = 2.19743 s.
Peak resident memory used = 99.6 Mbytes.

~~~~~~~~~~~~~~~~~~~~~~
Pre-Simulation Summary
~~~~~~~~~~~~~~~~~~~~~~
~~~~~~~~~~~~~~~~~~~~~~

************************************************
Transient Analysis `tran': time = (0 s -> 12 ns)
************************************************

Notice from spectre during IC analysis, during transient analysis `tran'.
    GminDC = 1 pS is large enough to noticeably affect the DC solution.
        dV(XNO.I3.M3:int_s) = 105.32 uV
        Use the `gmin_check' option to eliminate or expand this report.

DC simulation time: CPU = 15.092 ms, elapsed = 7.54905 ms.

Opening the PSFXL file ../psf/tran.tran.tran ...
Important parameter values:
    start = 0 s
    outputstart = 0 s
    stop = 12 ns
    step = 12 ps
    maxstep = 240 ps
    ic = all
    useprevic = no
    skipdc = no
    reltol = 1e-03
    abstol(V) = 1 uV
    abstol(I) = 1 pA
    temp = 27 C
    tnom = 27 C
    tempeffects = all
    errpreset = moderate
    method = traponly
    lteratio = 3.5
    relref = sigglobal
    cmin = 0 F
    gmin = 1 pS


Output and IC/nodeset summary:
                 save   3       (current)
                 save   24      (voltage)

    tran: time = 340 ps      (2.83 %), step = 160 ps       (1.33 %)

Notice from spectre at time = 692.575 ps during transient analysis `tran'.
    Found trapezoidal ringing on node XNO.I12.M1:int_d.
Notice from spectre at time = 750.384 ps during transient analysis `tran'.
    Found trapezoidal ringing on node XNO.I12.M1:int_d.
Notice from spectre at time = 864.631 ps during transient analysis `tran'.
    Found trapezoidal ringing on node XNO.I12.M1:int_d.
Notice from spectre at time = 1.09312 ns during transient analysis `tran'.
    Found trapezoidal ringing on node XNO.I12.M1:int_d.

    tran: time = 1.093 ns    (9.11 %), step = 228.5 ps      (1.9 %)

Notice from spectre at time = 1.33312 ns during transient analysis `tran'.
    Found trapezoidal ringing on node VDD_SRC:p.
        Further occurrences of this notice will be suppressed.

    tran: time = 1.573 ns    (13.1 %), step = 240 ps          (2 %)
    tran: time = 2.293 ns    (19.1 %), step = 240 ps          (2 %)
    tran: time = 2.739 ns    (22.8 %), step = 48.82 ps     (407 m%)
    tran: time = 3.477 ns      (29 %), step = 240 ps          (2 %)
    tran: time = 3.957 ns      (33 %), step = 240 ps          (2 %)
    tran: time = 4.677 ns      (39 %), step = 240 ps          (2 %)
    tran: time = 5.157 ns      (43 %), step = 240 ps          (2 %)
    tran: time = 5.71 ns     (47.6 %), step = 37.66 ps     (314 m%)
    tran: time = 6.399 ns    (53.3 %), step = 240 ps          (2 %)
    tran: time = 7.119 ns    (59.3 %), step = 240 ps          (2 %)
    tran: time = 7.505 ns    (62.5 %), step = 193 ps       (1.61 %)
    tran: time = 8.266 ns    (68.9 %), step = 240 ps          (2 %)
    tran: time = 8.746 ns    (72.9 %), step = 240 ps          (2 %)
    tran: time = 9.466 ns    (78.9 %), step = 240 ps          (2 %)
    tran: time = 9.946 ns    (82.9 %), step = 240 ps          (2 %)
    tran: time = 10.5 ns     (87.5 %), step = 157 ps       (1.31 %)
    tran: time = 11.16 ns      (93 %), step = 240 ps          (2 %)
    tran: time = 11.82 ns    (98.5 %), step = 180.5 ps      (1.5 %)
Number of accepted tran steps =             557

Notice from spectre during transient analysis `tran'.
    Trapezoidal ringing is detected during tran analysis.
        Please use method=trap for better results and performance.


Maximum value achieved for any signal of each quantity:
V: V(XNO.I5.M1:int_d) = 904 mV
I: I(VDD_SRC:p) = 372.7 uA
If your circuit contains signals of the same quantity that are vastly different in size (such as high voltage circuitry combined with low voltage control circuitry), you should consider specifying global option `bin_relref=yes'.

~~~~~~~~~~~~~~~~~~~~~~~~~~~~~~~~~
Post-Transient Simulation Summary
~~~~~~~~~~~~~~~~~~~~~~~~~~~~~~~~~
   -   To further speed up simulation, consider
          add ++aps on command line
~~~~~~~~~~~~~~~~~~~~~~~~~~~~~~~~~


During simulation, the CPU load for active processors is :
        Spectre  0 (100.0 %)     1 (56.3 %)      2 (59.5 %)      3 (56.5 %)
                 4 (24.9 %)      5 (9.6 %)       6 (87.6 %)      7 (12.4 %)
                 8 (5.6 %)       9 (94.4 %)     10 (4.4 %)      11 (3.6 %)
                12 (14.0 %)     13 (99.6 %)     14 (4.4 %)      15 (3.2 %)
        Other
Initial condition solution time: CPU = 15.463 ms, elapsed = 7.73811 ms.
Intrinsic tran analysis time:    CPU = 840.371 ms, elapsed = 458.475 ms.
Total time required for tran analysis `tran': CPU = 867.041 ms, elapsed = 471.838 ms.
Time accumulated: CPU = 4.95408 s, elapsed = 2.6863 s.
Peak resident memory used = 104 Mbytes.


Notice from spectre.
    14 notices suppressed.

finalTimeOP: writing operating point information to rawfile.

Opening the PSF file ../psf/finalTimeOP.info ...
modelParameter: writing model parameter values to rawfile.

Opening the PSF file ../psf/modelParameter.info ...
element: writing instance parameter values to rawfile.

Opening the PSF file ../psf/element.info ...
outputParameter: writing output parameter values to rawfile.

Opening the PSF file ../psf/outputParameter.info ...
designParamVals: writing netlist parameters to rawfile.

Opening the PSFASCII file ../psf/designParamVals.info ...
primitives: writing primitives to rawfile.

Opening the PSFASCII file ../psf/primitives.info.primitives ...
subckts: writing subcircuits to rawfile.

Opening the PSFASCII file ../psf/subckts.info.subckts ...

Aggregate audit (11:39:54 AM, Thur Jun 18, 2026):
Time used: CPU = 5.17 s, elapsed = 5.17 s, util. = 100%.
Time spent in licensing: elapsed = 74.1 ms.
Peak memory used = 107 Mbytes.
Simulation started at: 11:39:51 AM, Thur Jun 18, 2026, ended at: 11:39:54 AM, Thur Jun 18, 2026, with elapsed time (wall clock): 5.17 s.
spectre completes with 0 errors, 5 warnings, and 9 notices.
