
Spectre (R) Circuit Simulator
Version 18.1.0.077 64bit -- 1 Aug 2018
Copyright (C) 1989-2018 Cadence Design Systems, Inc. All rights reserved worldwide. Cadence and Spectre are registered trademarks of Cadence Design Systems, Inc. All others are the property of their respective holders.

Includes RSA BSAFE(R) Cryptographic or Security Protocol Software from RSA Security, Inc.

User: IC   Host: IC   HostID: 7F0100   PID: 27421
Memory  available: 147.5174 MB  physical: 16.7718 GB
Linux   : CentOS Linux release 7.7.1908 (Core)
CPU Type: Intel(R) Core(TM) i9-14900HX
All processors running at 2419.2 MHz
        Socket: Processors
        0:       0,  1,  2,  3
        1:       4,  5,  6,  7
        2:       8,  9, 10, 11
        3:      12, 13, 14, 15

System load averages (1min, 5min, 15min) : 32.2 %, 23.0 %, 16.8 %
This is a virtual machine


Simulating `input.scs' on IC at 11:50:28 AM, Thur Jun 18, 2026 (process id: 27421).
Current working directory: /home/IC/simulation/SAR9B_400MV/TB_SUBMOD_ASYCTRL_9CLK_PERF/maestro/results/maestro/Interactive.5/1/TRAN/netlist
Environment variable:
    SPECTRE_DEFAULTS=-E
Command line:
    /opt/eda/cadence/SPECTRE181/tools.lnx86/bin/spectre -64 input.scs  \
        +escchars +log ../psf/spectre.out -format psfxl -raw ../psf  \
        +lqtimeout 900 -maxw 5 -maxn 5 -ahdllibdir  \
        /home/IC/simulation/SAR9B_400MV/TB_SUBMOD_ASYCTRL_9CLK_PERF/maestro/results/maestro/Interactive.5/sharedData/CDS/ahdl/input.ahdlSimDB  \
        +logstatus

Loading /opt/eda/cadence/SPECTRE181/tools.lnx86/cmi/lib/64bit/5.0/libinfineon_sh.so ...
Loading /opt/eda/cadence/SPECTRE181/tools.lnx86/cmi/lib/64bit/5.0/libphilips_o_sh.so ...
Loading /opt/eda/cadence/SPECTRE181/tools.lnx86/cmi/lib/64bit/5.0/libphilips_sh.so ...
Loading /opt/eda/cadence/SPECTRE181/tools.lnx86/cmi/lib/64bit/5.0/libsparam_sh.so ...
Loading /opt/eda/cadence/SPECTRE181/tools.lnx86/cmi/lib/64bit/5.0/libstmodels_sh.so ...
Reading file:  /home/IC/simulation/SAR9B_400MV/TB_SUBMOD_ASYCTRL_9CLK_PERF/maestro/results/maestro/Interactive.5/1/TRAN/netlist/input.scs
Reading file:  /opt/eda/cadence/SPECTRE181/tools.lnx86/spectre/etc/configs/mapsubckt.cfg
Reading file:  /opt/eda/cadence/SPECTRE181/tools.lnx86/spectre/etc/configs/spectre.cfg
Reading file:  /usr/include/stdc-predef.h
Reading file:  /home/IC/Desktop/Project/project_tsmcN28_NEW/project_tsmcN28_NEW/iPDK_CRN28HPC+_v1.0_2p2a_20160226_all/CRN28HPCp/models/spectre/toplevel.scs
Reading file:  /home/IC/Desktop/Project/project_tsmcN28_NEW/project_tsmcN28_NEW/iPDK_CRN28HPC+_v1.0_2p2a_20160226_all/CRN28HPCp/models/spectre/crn28hpcp_lct_1d8_elk_v1d0_2p2_shrink0d9_embedded_usage.scs
Reading file:  /home/IC/Desktop/Project/project_tsmcN28_NEW/project_tsmcN28_NEW/iPDK_CRN28HPC+_v1.0_2p2a_20160226_all/CRN28HPCp/models/spectre/crn28hpcp_lct_1d8_elk_v1d0_2p2.scs
Reading file:  /home/IC/Desktop/Project/project_tsmcN28_NEW/project_tsmcN28_NEW/iPDK_CRN28HPC+_v1.0_2p2a_20160226_all/CRN28HPCp/models/spectre/res_metal.scs
Reading file:  /home/IC/Desktop/Project/project_tsmcN28_NEW/project_tsmcN28_NEW/iPDK_CRN28HPC+_v1.0_2p2a_20160226_all/CRN28HPCp/models/spectre/cln28hpcp_hv_1d8_elk_v0d1_2p1_shrink0d9_embedded_usage.scs
Reading file:  /home/IC/Desktop/Project/project_tsmcN28_NEW/project_tsmcN28_NEW/iPDK_CRN28HPC+_v1.0_2p2a_20160226_all/CRN28HPCp/models/spectre/cln28hpcp_hv_1d8_elk_v0d1_2p1.scs
Time for NDB Parsing: CPU = 3.4259 s, elapsed = 1.89183 s.
Time accumulated: CPU = 3.4866 s, elapsed = 1.89185 s.
Peak resident memory used = 83.4 Mbytes.

Reading link:  /opt/eda/cadence/SPECTRE181/tools.lnx86/spectre/etc/ahdl/discipline.h
Reading file:  /opt/eda/cadence/SPECTRE181/tools.lnx86/spectre/etc/ahdl/disciplines.vams
Reading link:  /opt/eda/cadence/SPECTRE181/tools.lnx86/spectre/etc/ahdl/constants.h
Reading file:  /opt/eda/cadence/SPECTRE181/tools.lnx86/spectre/etc/ahdl/constants.vams

Warning from spectre during hierarchy flattening.
    WARNING (SFE-1131): Duplicate scope option `scalefactor' with scope `TopCircuit'. (using last value specified).
    WARNING (SFE-1131): Duplicate scope option `scalefactor' with scope `TopCircuit'. (using last value specified).
    WARNING (SFE-1131): Duplicate scope option `scalefactor' with scope `TopCircuit'. (using last value specified).
    WARNING (SFE-1131): Duplicate scope option `scalefactor' with scope `TopCircuit'. (using last value specified).

Time for Elaboration: CPU = 514.799 ms, elapsed = 257.404 ms.
Time accumulated: CPU = 4.00248 s, elapsed = 2.14974 s.
Peak resident memory used = 98 Mbytes.


Warning from spectre during hierarchy flattening.
    WARNING (SPECTRE-17101): The value 'psf' specified using the 'checklimitdest' option will no longer be supported in future releases.


Time for EDB Visiting: CPU = 56.511 ms, elapsed = 28.2571 ms.
Time accumulated: CPU = 4.06286 s, elapsed = 2.17993 s.
Peak resident memory used = 99.9 Mbytes.


Notice from spectre during topology check.
    Only one connection to node `0'.


Global user options:
         psfversion = 1.1.0
            vabstol = 1e-06
            iabstol = 1e-12
               temp = 27
               gmin = 1e-12
             rforce = 1
           maxnotes = 5
           maxwarns = 5
             digits = 5
               cols = 80
             pivrel = 0.001
           sensfile = ../psf/sens.output
     checklimitdest = psf
               save = allpub
        scalefactor = 0.9
        scalefactor = 0.9
        scalefactor = 0.9
        scalefactor = 0.9
        scalefactor = 0.9
             reltol = 0.001
               tnom = 27
             scalem = 1
              scale = 1

Scoped user options:

Circuit inventory:
              nodes 125
              bsim4 278
          capacitor 1
            vsource 4

Analysis and control statement inventory:
               info 7
               tran 1

Output statements:
             .probe 0
           .measure 0
               save 1

Time for parsing: CPU = 42.214 ms, elapsed = 21.693 ms.
Time accumulated: CPU = 4.10854 s, elapsed = 2.20336 s.
Peak resident memory used = 102 Mbytes.

~~~~~~~~~~~~~~~~~~~~~~
Pre-Simulation Summary
~~~~~~~~~~~~~~~~~~~~~~
~~~~~~~~~~~~~~~~~~~~~~

************************************************
Transient Analysis `tran': time = (0 s -> 28 ns)
************************************************

Notice from spectre during IC analysis, during transient analysis `tran'.
    GminDC = 1 pS is large enough to noticeably affect the DC solution.
        dV(XASY.I2.I0.M3:int_s) = 105.306 uV
        Use the `gmin_check' option to eliminate or expand this report.

DC simulation time: CPU = 88.391 ms, elapsed = 44.198 ms.

Opening the PSFXL file ../psf/tran.tran.tran ...
Important parameter values:
    start = 0 s
    outputstart = 0 s
    stop = 28 ns
    step = 28 ps
    maxstep = 560 ps
    ic = all
    useprevic = no
    skipdc = no
    reltol = 1e-03
    abstol(V) = 1 uV
    abstol(I) = 1 pA
    temp = 27 C
    tnom = 27 C
    tempeffects = all
    errpreset = moderate
    method = traponly
    lteratio = 3.5
    relref = sigglobal
    cmin = 0 F
    gmin = 1 pS


Output and IC/nodeset summary:
                 save   4       (current)
                 save   137     (voltage)

    tran: time = 717.8 ps    (2.56 %), step = 48.29 ps     (172 m%)
    tran: time = 2.115 ns    (7.55 %), step = 261.8 ps     (935 m%)
    tran: time = 3.563 ns    (12.7 %), step = 142.5 ps     (509 m%)

Notice from spectre at time = 5.06832 ns during transient analysis `tran'.
    Found trapezoidal ringing on node XASY.I1.I0.M3:int_s.

    tran: time = 5.068 ns    (18.1 %), step = 431.7 ps     (1.54 %)

Notice from spectre at time = 5.5 ns during transient analysis `tran'.
    Found trapezoidal ringing on node XASY.I1.I0.M3:int_s.

    tran: time = 6.505 ns    (23.2 %), step = 249.3 ps     (890 m%)
    tran: time = 8 ns        (28.6 %), step = 390.6 ps     (1.39 %)
    tran: time = 9.104 ns    (32.5 %), step = 12.64 ps    (45.1 m%)
    tran: time = 10.5 ns     (37.5 %), step = 397.7 ps     (1.42 %)
    tran: time = 12.09 ns    (43.2 %), step = 251.3 ps     (898 m%)
    tran: time = 13.31 ns    (47.5 %), step = 80.96 ps     (289 m%)
    tran: time = 15.09 ns    (53.9 %), step = 501.2 ps     (1.79 %)
    tran: time = 16.26 ns    (58.1 %), step = 192.8 ps     (689 m%)
    tran: time = 17.59 ns    (62.8 %), step = 500.5 ps     (1.79 %)
    tran: time = 19.01 ns    (67.9 %), step = 249.3 ps     (890 m%)
    tran: time = 20.5 ns     (73.2 %), step = 408.7 ps     (1.46 %)

Notice from spectre at time = 21.505 ns during transient analysis `tran'.
    Found trapezoidal ringing on node XASY.I7.I1.M2:int_d.

    tran: time = 21.74 ns    (77.6 %), step = 100.5 ps     (359 m%)

Notice from spectre at time = 22.6716 ns during transient analysis `tran'.
    Found trapezoidal ringing on node VDD_SRC:p.
Notice from spectre at time = 23 ns during transient analysis `tran'.
    Found trapezoidal ringing on node VDD_SRC:p.
        Further occurrences of this notice will be suppressed.

    tran: time = 23.13 ns    (82.6 %), step = 37.51 ps     (134 m%)
    tran: time = 24.69 ns    (88.2 %), step = 324.4 ps     (1.16 %)
    tran: time = 25.95 ns    (92.7 %), step = 173.4 ps     (619 m%)
    tran: time = 27.59 ns    (98.5 %), step = 406.5 ps     (1.45 %)
Number of accepted tran steps =             1381

Notice from spectre during transient analysis `tran'.
    Trapezoidal ringing is detected during tran analysis.
        Please use method=trap for better results and performance.


Maximum value achieved for any signal of each quantity:
V: V(XASY.I10.M6:int_d) = 936.1 mV
I: I(VDD_SRC:p) = 1.405 mA
If your circuit contains signals of the same quantity that are vastly different in size (such as high voltage circuitry combined with low voltage control circuitry), you should consider specifying global option `bin_relref=yes'.

~~~~~~~~~~~~~~~~~~~~~~~~~~~~~~~~~
Post-Transient Simulation Summary
~~~~~~~~~~~~~~~~~~~~~~~~~~~~~~~~~
   -   To further speed up simulation, consider
          add ++aps on command line
~~~~~~~~~~~~~~~~~~~~~~~~~~~~~~~~~


During simulation, the CPU load for active processors is :
        Spectre  0 (96.5 %)      1 (9.0 %)       2 (8.6 %)       3 (99.9 %)
                 4 (13.6 %)      5 (35.2 %)      6 (10.3 %)      7 (100.0 %)
                 8 (23.6 %)      9 (27.3 %)     10 (31.3 %)     11 (29.3 %)
                12 (75.1 %)     13 (33.3 %)     14 (48.6 %)     15 (36.9 %)
        Other
Initial condition solution time: CPU = 88.647 ms, elapsed = 44.3301 ms.
Intrinsic tran analysis time:    CPU = 6.64464 s, elapsed = 6.1887 s.
Total time required for tran analysis `tran': CPU = 6.74978 s, elapsed = 6.24133 s.
Time accumulated: CPU = 10.8864 s, elapsed = 8.47287 s.
Peak resident memory used = 111 Mbytes.


Notice from spectre.
    4 notices suppressed.

finalTimeOP: writing operating point information to rawfile.

Opening the PSF file ../psf/finalTimeOP.info ...
modelParameter: writing model parameter values to rawfile.

Opening the PSF file ../psf/modelParameter.info ...
element: writing instance parameter values to rawfile.

Opening the PSF file ../psf/element.info ...
outputParameter: writing output parameter values to rawfile.

Opening the PSF file ../psf/outputParameter.info ...
designParamVals: writing netlist parameters to rawfile.

Opening the PSFASCII file ../psf/designParamVals.info ...
primitives: writing primitives to rawfile.

Opening the PSFASCII file ../psf/primitives.info.primitives ...
subckts: writing subcircuits to rawfile.

Opening the PSFASCII file ../psf/subckts.info.subckts ...

Aggregate audit (11:50:36 AM, Thur Jun 18, 2026):
Time used: CPU = 11.1 s, elapsed = 11.1 s, util. = 100%.
Time spent in licensing: elapsed = 68.7 ms.
Peak memory used = 112 Mbytes.
Simulation started at: 11:50:28 AM, Thur Jun 18, 2026, ended at: 11:50:36 AM, Thur Jun 18, 2026, with elapsed time (wall clock): 11.1 s.
spectre completes with 0 errors, 5 warnings, and 9 notices.
