
Spectre (R) Circuit Simulator
Version 18.1.0.077 64bit -- 1 Aug 2018
Copyright (C) 1989-2018 Cadence Design Systems, Inc. All rights reserved worldwide. Cadence and Spectre are registered trademarks of Cadence Design Systems, Inc. All others are the property of their respective holders.

Includes RSA BSAFE(R) Cryptographic or Security Protocol Software from RSA Security, Inc.

User: IC   Host: IC   HostID: 7F0100   PID: 39581
Memory  available: 278.4378 MB  physical: 16.7718 GB
Linux   : CentOS Linux release 7.7.1908 (Core)
CPU Type: Intel(R) Core(TM) i9-14900HX
All processors running at 2419.2 MHz
        Socket: Processors
        0:       0,  1,  2,  3
        1:       4,  5,  6,  7
        2:       8,  9, 10, 11
        3:      12, 13, 14, 15
        
System load averages (1min, 5min, 15min) : 17.8 %, 10.3 %, 6.4 %
This is a virtual machine


Simulating `input.scs' on IC at 11:29:49 PM, Wed Jun 17, 2026 (process id: 39581).
Current working directory: /home/IC/simulation/SAR9B_400MV/TB_SUBMOD_ASYCTRL_9CLK_PERF/maestro/results/maestro/Interactive.7/1/TRAN/netlist
Environment variable:
    SPECTRE_DEFAULTS=-E
Command line:
    /opt/eda/cadence/SPECTRE181/tools.lnx86/bin/spectre -64 input.scs  \
        +escchars +log ../psf/spectre.out -format psfxl -raw ../psf  \
        +lqtimeout 900 -maxw 5 -maxn 5 -ahdllibdir  \
        /home/IC/simulation/SAR9B_400MV/TB_SUBMOD_ASYCTRL_9CLK_PERF/maestro/results/maestro/Interactive.7/sharedData/CDS/ahdl/input.ahdlSimDB  \
        +logstatus

Loading /opt/eda/cadence/SPECTRE181/tools.lnx86/cmi/lib/64bit/5.0/libinfineon_sh.so ...
Loading /opt/eda/cadence/SPECTRE181/tools.lnx86/cmi/lib/64bit/5.0/libphilips_o_sh.so ...
Loading /opt/eda/cadence/SPECTRE181/tools.lnx86/cmi/lib/64bit/5.0/libphilips_sh.so ...
Loading /opt/eda/cadence/SPECTRE181/tools.lnx86/cmi/lib/64bit/5.0/libsparam_sh.so ...
Loading /opt/eda/cadence/SPECTRE181/tools.lnx86/cmi/lib/64bit/5.0/libstmodels_sh.so ...
Reading file:  /home/IC/simulation/SAR9B_400MV/TB_SUBMOD_ASYCTRL_9CLK_PERF/maestro/results/maestro/Interactive.7/1/TRAN/netlist/input.scs
Reading file:  /opt/eda/cadence/SPECTRE181/tools.lnx86/spectre/etc/configs/mapsubckt.cfg
Reading file:  /opt/eda/cadence/SPECTRE181/tools.lnx86/spectre/etc/configs/spectre.cfg
Reading file:  /usr/include/stdc-predef.h
Reading file:  /home/IC/Desktop/Project/project_tsmcN28_NEW/project_tsmcN28_NEW/iPDK_CRN28HPC+_v1.0_2p2a_20160226_all/CRN28HPCp/models/spectre/toplevel.scs
Reading file:  /home/IC/Desktop/Project/project_tsmcN28_NEW/project_tsmcN28_NEW/iPDK_CRN28HPC+_v1.0_2p2a_20160226_all/CRN28HPCp/models/spectre/crn28hpcp_lct_1d8_elk_v1d0_2p2_shrink0d9_embedded_usage.scs
Reading file:  /home/IC/Desktop/Project/project_tsmcN28_NEW/project_tsmcN28_NEW/iPDK_CRN28HPC+_v1.0_2p2a_20160226_all/CRN28HPCp/models/spectre/crn28hpcp_lct_1d8_elk_v1d0_2p2.scs
Reading file:  /home/IC/Desktop/Project/project_tsmcN28_NEW/project_tsmcN28_NEW/iPDK_CRN28HPC+_v1.0_2p2a_20160226_all/CRN28HPCp/models/spectre/res_metal.scs
Reading file:  /home/IC/Desktop/Project/project_tsmcN28_NEW/project_tsmcN28_NEW/iPDK_CRN28HPC+_v1.0_2p2a_20160226_all/CRN28HPCp/models/spectre/cln28hpcp_hv_1d8_elk_v0d1_2p1_shrink0d9_embedded_usage.scs
Reading file:  /home/IC/Desktop/Project/project_tsmcN28_NEW/project_tsmcN28_NEW/iPDK_CRN28HPC+_v1.0_2p2a_20160226_all/CRN28HPCp/models/spectre/cln28hpcp_hv_1d8_elk_v0d1_2p1.scs
Time for NDB Parsing: CPU = 3.43017 s, elapsed = 1.90329 s.
Time accumulated: CPU = 3.49298 s, elapsed = 1.90332 s.
Peak resident memory used = 87.3 Mbytes.

Reading link:  /opt/eda/cadence/SPECTRE181/tools.lnx86/spectre/etc/ahdl/discipline.h
Reading file:  /opt/eda/cadence/SPECTRE181/tools.lnx86/spectre/etc/ahdl/disciplines.vams
Reading link:  /opt/eda/cadence/SPECTRE181/tools.lnx86/spectre/etc/ahdl/constants.h
Reading file:  /opt/eda/cadence/SPECTRE181/tools.lnx86/spectre/etc/ahdl/constants.vams

Warning from spectre during hierarchy flattening.
    WARNING (SFE-1131): Duplicate scope option `scalefactor' with scope `TopCircuit'. (using last value specified).
    WARNING (SFE-1131): Duplicate scope option `scalefactor' with scope `TopCircuit'. (using last value specified).
    WARNING (SFE-1131): Duplicate scope option `scalefactor' with scope `TopCircuit'. (using last value specified).
    WARNING (SFE-1131): Duplicate scope option `scalefactor' with scope `TopCircuit'. (using last value specified).

Time for Elaboration: CPU = 556.871 ms, elapsed = 278.456 ms.
Time accumulated: CPU = 4.0507 s, elapsed = 2.1822 s.
Peak resident memory used = 102 Mbytes.


Warning from spectre during hierarchy flattening.
    WARNING (SPECTRE-17101): The value 'psf' specified using the 'checklimitdest' option will no longer be supported in future releases.


Time for EDB Visiting: CPU = 70.951 ms, elapsed = 35.4769 ms.
Time accumulated: CPU = 4.1299 s, elapsed = 2.22178 s.
Peak resident memory used = 104 Mbytes.


Notice from spectre during topology check.
    Only one connection to node `0'.


Global user options:
         psfversion = 1.1.0
            vabstol = 1e-06
            iabstol = 1e-12
               temp = 27
               gmin = 1e-12
             rforce = 1
           maxnotes = 5
           maxwarns = 5
             digits = 5
               cols = 80
             pivrel = 0.001
           sensfile = ../psf/sens.output
     checklimitdest = psf
               save = allpub
        scalefactor = 0.9
        scalefactor = 0.9
        scalefactor = 0.9
        scalefactor = 0.9
        scalefactor = 0.9
             reltol = 0.001
               tnom = 27
             scalem = 1
              scale = 1

Scoped user options:

Circuit inventory:
              nodes 125
              bsim4 278   
          capacitor 1     
            vsource 4     

Analysis and control statement inventory:
               info 7     
               tran 1     

Output statements:
             .probe 0     
           .measure 0     
               save 1     

Time for parsing: CPU = 41.944 ms, elapsed = 22.0449 ms.
Time accumulated: CPU = 4.17445 s, elapsed = 2.24513 s.
Peak resident memory used = 106 Mbytes.

~~~~~~~~~~~~~~~~~~~~~~
Pre-Simulation Summary
~~~~~~~~~~~~~~~~~~~~~~
~~~~~~~~~~~~~~~~~~~~~~

************************************************
Transient Analysis `tran': time = (0 s -> 28 ns)
************************************************

Notice from spectre during IC analysis, during transient analysis `tran'.
    GminDC = 1 pS is large enough to noticeably affect the DC solution.
        dV(XASY.I6.I0.M3:int_s) = 119.226 uV
        Use the `gmin_check' option to eliminate or expand this report.

DC simulation time: CPU = 92.404 ms, elapsed = 46.2029 ms.

Opening the PSFXL file ../psf/tran.tran.tran ...
Important parameter values:
    start = 0 s
    outputstart = 0 s
    stop = 28 ns
    step = 28 ps
    maxstep = 560 ps
    ic = all
    useprevic = no
    skipdc = no
    reltol = 1e-03
    abstol(V) = 1 uV
    abstol(I) = 1 pA
    temp = 27 C
    tnom = 27 C
    tempeffects = all
    errpreset = moderate
    method = traponly
    lteratio = 3.5
    relref = sigglobal
    cmin = 0 F
    gmin = 1 pS


Output and IC/nodeset summary:
                 save   4       (current)
                 save   137     (voltage)


Warning from spectre at time = 309.58 ps during transient analysis `tran'.
    WARNING (CMI-2751): XASY.I0.I5.M2: Vds(=-1.00233 V) has exceeded vds_max(=990 mV).
    WARNING (CMI-2751): XASY.I1.I5.M2: Vds(=-1.00233 V) has exceeded vds_max(=990 mV).
    WARNING (CMI-2751): XASY.I2.I5.M2: Vds(=-1.00233 V) has exceeded vds_max(=990 mV).
    WARNING (CMI-2751): XASY.I3.I5.M2: Vds(=-1.00233 V) has exceeded vds_max(=990 mV).
    WARNING (CMI-2751): XASY.I4.I5.M2: Vds(=-1.00233 V) has exceeded vds_max(=990 mV).
        Further occurrences of this warning will be suppressed.

    tran: time = 734.5 ps    (2.62 %), step = 60.4 ps      (216 m%)
    tran: time = 2.282 ns    (8.15 %), step = 222.1 ps     (793 m%)

Notice from spectre at time = 3.0922 ns during transient analysis `tran'.
    Found trapezoidal ringing on node XASY.I11.I9.M0:int_d.

    tran: time = 3.586 ns    (12.8 %), step = 165.2 ps     (590 m%)

Notice from spectre at time = 4.14496 ns during transient analysis `tran'.
    Found trapezoidal ringing on node XASY.I0.I15.M0:int_d.
Notice from spectre at time = 4.24354 ns during transient analysis `tran'.
    Found trapezoidal ringing on node XASY.I0.I15.M0:int_d.
Notice from spectre at time = 4.42303 ns during transient analysis `tran'.
    Found trapezoidal ringing on node XASY.I0.I15.M0:int_d.
Notice from spectre at time = 4.75128 ns during transient analysis `tran'.
    Found trapezoidal ringing on node XASY.I0.I15.M0:int_d.
        Further occurrences of this notice will be suppressed.

    tran: time = 5.126 ns    (18.3 %), step = 374.4 ps     (1.34 %)
    tran: time = 6.505 ns    (23.2 %), step = 226.6 ps     (809 m%)
    tran: time = 8 ns        (28.6 %), step = 374.3 ps     (1.34 %)
    tran: time = 9.145 ns    (32.7 %), step = 53.1 ps      (190 m%)
    tran: time = 10.5 ns     (37.5 %), step = 374.3 ps     (1.34 %)
    tran: time = 11.92 ns    (42.6 %), step = 179.5 ps     (641 m%)
    tran: time = 13.33 ns    (47.6 %), step = 126.8 ps     (453 m%)
    tran: time = 14.75 ns    (52.7 %), step = 328.3 ps     (1.17 %)
    tran: time = 16.28 ns    (58.1 %), step = 226.6 ps     (809 m%)
    tran: time = 17.63 ns    (62.9 %), step = 374.4 ps     (1.34 %)
    tran: time = 19.01 ns    (67.9 %), step = 226.6 ps     (809 m%)
    tran: time = 20.5 ns     (73.2 %), step = 374.4 ps     (1.34 %)
    tran: time = 21.74 ns    (77.7 %), step = 98.57 ps     (352 m%)
    tran: time = 23.13 ns    (82.6 %), step = 41.98 ps     (150 m%)
    tran: time = 24.75 ns    (88.4 %), step = 328.2 ps     (1.17 %)
    tran: time = 26.05 ns      (93 %), step = 218 ps       (779 m%)
    tran: time = 27.63 ns    (98.7 %), step = 374.4 ps     (1.34 %)
Number of accepted tran steps =             1033

Notice from spectre during transient analysis `tran'.
    Trapezoidal ringing is detected during tran analysis.
        Please use method=trap for better results and performance.


Maximum value achieved for any signal of each quantity: 
V: V(XASY.I6.I5.M1:int_d) = 1.026 V
I: I(VDD_SRC:p) = 1.738 mA
If your circuit contains signals of the same quantity that are vastly different in size (such as high voltage circuitry combined with low voltage control circuitry), you should consider specifying global option `bin_relref=yes'.

~~~~~~~~~~~~~~~~~~~~~~~~~~~~~~~~~
Post-Transient Simulation Summary
~~~~~~~~~~~~~~~~~~~~~~~~~~~~~~~~~
   -   To further speed up simulation, consider
          add ++aps on command line
~~~~~~~~~~~~~~~~~~~~~~~~~~~~~~~~~


During simulation, the CPU load for active processors is :
        Spectre  0 (9.3 %)       1 (40.1 %)      2 (4.8 %)       3 (5.1 %)
                 4 (28.5 %)      5 (16.3 %)      6 (13.8 %)      7 (19.1 %)
                 8 (67.8 %)      9 (54.9 %)     10 (8.1 %)      11 (1.8 %)
                12 (2.2 %)      13 (37.2 %)     14 (8.6 %)      15 (72.9 %)
        Other   
Initial condition solution time: CPU = 92.679 ms, elapsed = 46.3459 ms.
Intrinsic tran analysis time:    CPU = 5.3883 s, elapsed = 5.15757 s.
Total time required for tran analysis `tran': CPU = 5.49905 s, elapsed = 5.21303 s.
Time accumulated: CPU = 9.70712 s, elapsed = 7.49165 s.
Peak resident memory used = 115 Mbytes.


Notice from spectre.
    90 notices suppressed.
    688 warnings suppressed.

finalTimeOP: writing operating point information to rawfile.

Opening the PSF file ../psf/finalTimeOP.info ...
modelParameter: writing model parameter values to rawfile.

Opening the PSF file ../psf/modelParameter.info ...
element: writing instance parameter values to rawfile.

Opening the PSF file ../psf/element.info ...
outputParameter: writing output parameter values to rawfile.

Opening the PSF file ../psf/outputParameter.info ...
designParamVals: writing netlist parameters to rawfile.

Opening the PSFASCII file ../psf/designParamVals.info ...
primitives: writing primitives to rawfile.

Opening the PSFASCII file ../psf/primitives.info.primitives ...
subckts: writing subcircuits to rawfile.

Opening the PSFASCII file ../psf/subckts.info.subckts ...

Aggregate audit (11:29:57 PM, Wed Jun 17, 2026):
Time used: CPU = 10 s, elapsed = 10 s, util. = 100%.
Time spent in licensing: elapsed = 71.5 ms.
Peak memory used = 116 Mbytes.
Simulation started at: 11:29:49 PM, Wed Jun 17, 2026, ended at: 11:29:57 PM, Wed Jun 17, 2026, with elapsed time (wall clock): 10 s.
spectre completes with 0 errors, 10 warnings, and 10 notices.
