
Spectre (R) Circuit Simulator
Version 18.1.0.077 64bit -- 1 Aug 2018
Copyright (C) 1989-2018 Cadence Design Systems, Inc. All rights reserved worldwide. Cadence and Spectre are registered trademarks of Cadence Design Systems, Inc. All others are the property of their respective holders.

Includes RSA BSAFE(R) Cryptographic or Security Protocol Software from RSA Security, Inc.

User: IC   Host: IC   HostID: 7F0100   PID: 128045
Memory  available: 300.9126 MB  physical: 16.7718 GB
Linux   : CentOS Linux release 7.7.1908 (Core)
CPU Type: Intel(R) Core(TM) i9-14900HX
All processors running at 2419.2 MHz
        Socket: Processors
        0:       0,  1,  2,  3
        1:       4,  5,  6,  7
        2:       8,  9, 10, 11
        3:      12, 13, 14, 15

System load averages (1min, 5min, 15min) : 16.6 %, 15.1 %, 9.4 %
This is a virtual machine


Simulating `input.scs' on IC at 11:07:16 AM, Thur Jun 18, 2026 (process id: 128045).
Current working directory: /home/IC/simulation/SAR9B_400MV/TB_SUBMOD_BOOTSTRAP_DIFF_PERF/maestro/results/maestro/Interactive.0/1/TRAN/netlist
Environment variable:
    SPECTRE_DEFAULTS=-E
Command line:
    /opt/eda/cadence/SPECTRE181/tools.lnx86/bin/spectre -64 input.scs  \
        +escchars +log ../psf/spectre.out -format psfxl -raw ../psf  \
        +lqtimeout 900 -maxw 5 -maxn 5 -ahdllibdir  \
        /home/IC/simulation/SAR9B_400MV/TB_SUBMOD_BOOTSTRAP_DIFF_PERF/maestro/results/maestro/Interactive.0/sharedData/CDS/ahdl/input.ahdlSimDB  \
        +logstatus

Loading /opt/eda/cadence/SPECTRE181/tools.lnx86/cmi/lib/64bit/5.0/libinfineon_sh.so ...
Loading /opt/eda/cadence/SPECTRE181/tools.lnx86/cmi/lib/64bit/5.0/libphilips_o_sh.so ...
Loading /opt/eda/cadence/SPECTRE181/tools.lnx86/cmi/lib/64bit/5.0/libphilips_sh.so ...
Loading /opt/eda/cadence/SPECTRE181/tools.lnx86/cmi/lib/64bit/5.0/libsparam_sh.so ...
Loading /opt/eda/cadence/SPECTRE181/tools.lnx86/cmi/lib/64bit/5.0/libstmodels_sh.so ...
Reading file:  /home/IC/simulation/SAR9B_400MV/TB_SUBMOD_BOOTSTRAP_DIFF_PERF/maestro/results/maestro/Interactive.0/1/TRAN/netlist/input.scs
Reading file:  /opt/eda/cadence/SPECTRE181/tools.lnx86/spectre/etc/configs/mapsubckt.cfg
Reading file:  /opt/eda/cadence/SPECTRE181/tools.lnx86/spectre/etc/configs/spectre.cfg
Reading file:  /usr/include/stdc-predef.h
Reading file:  /home/IC/Desktop/Project/project_tsmcN28_NEW/project_tsmcN28_NEW/iPDK_CRN28HPC+_v1.0_2p2a_20160226_all/CRN28HPCp/models/spectre/toplevel.scs
Reading file:  /home/IC/Desktop/Project/project_tsmcN28_NEW/project_tsmcN28_NEW/iPDK_CRN28HPC+_v1.0_2p2a_20160226_all/CRN28HPCp/models/spectre/crn28hpcp_lct_1d8_elk_v1d0_2p2_shrink0d9_embedded_usage.scs
Reading file:  /home/IC/Desktop/Project/project_tsmcN28_NEW/project_tsmcN28_NEW/iPDK_CRN28HPC+_v1.0_2p2a_20160226_all/CRN28HPCp/models/spectre/crn28hpcp_lct_1d8_elk_v1d0_2p2.scs
Reading file:  /home/IC/Desktop/Project/project_tsmcN28_NEW/project_tsmcN28_NEW/iPDK_CRN28HPC+_v1.0_2p2a_20160226_all/CRN28HPCp/models/spectre/res_metal.scs
Reading file:  /home/IC/Desktop/Project/project_tsmcN28_NEW/project_tsmcN28_NEW/iPDK_CRN28HPC+_v1.0_2p2a_20160226_all/CRN28HPCp/models/spectre/cln28hpcp_hv_1d8_elk_v0d1_2p1_shrink0d9_embedded_usage.scs
Reading file:  /home/IC/Desktop/Project/project_tsmcN28_NEW/project_tsmcN28_NEW/iPDK_CRN28HPC+_v1.0_2p2a_20160226_all/CRN28HPCp/models/spectre/cln28hpcp_hv_1d8_elk_v0d1_2p1.scs
Time for NDB Parsing: CPU = 3.58033 s, elapsed = 1.95187 s.
Time accumulated: CPU = 3.63651 s, elapsed = 1.95189 s.
Peak resident memory used = 85.8 Mbytes.

Reading link:  /opt/eda/cadence/SPECTRE181/tools.lnx86/spectre/etc/ahdl/discipline.h
Reading file:  /opt/eda/cadence/SPECTRE181/tools.lnx86/spectre/etc/ahdl/disciplines.vams
Reading link:  /opt/eda/cadence/SPECTRE181/tools.lnx86/spectre/etc/ahdl/constants.h
Reading file:  /opt/eda/cadence/SPECTRE181/tools.lnx86/spectre/etc/ahdl/constants.vams

Warning from spectre during hierarchy flattening.
    WARNING (SFE-1131): Duplicate scope option `scalefactor' with scope `TopCircuit'. (using last value specified).
    WARNING (SFE-1131): Duplicate scope option `scalefactor' with scope `TopCircuit'. (using last value specified).
    WARNING (SFE-1131): Duplicate scope option `scalefactor' with scope `TopCircuit'. (using last value specified).
    WARNING (SFE-1131): Duplicate scope option `scalefactor' with scope `TopCircuit'. (using last value specified).

Existing shared object for module bsource_965053 is up to date.
Installed compiled interface for bsource_965053.
Time for Elaboration: CPU = 462.751 ms, elapsed = 231.471 ms.
Time accumulated: CPU = 4.1006 s, elapsed = 2.18402 s.
Peak resident memory used = 100 Mbytes.


Warning from spectre during hierarchy flattening.
    WARNING (SPECTRE-17101): The value 'psf' specified using the 'checklimitdest' option will no longer be supported in future releases.


Time for EDB Visiting: CPU = 12.206 ms, elapsed = 6.10304 ms.
Time accumulated: CPU = 4.11955 s, elapsed = 2.1935 s.
Peak resident memory used = 101 Mbytes.


Notice from spectre during topology check.
    Only one connection to node `0'.


Global user options:
         psfversion = 1.1.0
            vabstol = 1e-06
            iabstol = 1e-12
               temp = 27
               gmin = 1e-12
             rforce = 1
           maxnotes = 5
           maxwarns = 5
             digits = 5
               cols = 80
             pivrel = 0.001
           sensfile = ../psf/sens.output
     checklimitdest = psf
               save = allpub
        scalefactor = 0.9
        scalefactor = 0.9
        scalefactor = 0.9
        scalefactor = 0.9
        scalefactor = 0.9
             reltol = 0.001
               tnom = 27
             scalem = 1
              scale = 1

Scoped user options:

Circuit inventory:
              nodes 18
              bsim4 24
     bsource_965053 2
          capacitor 4
            vsource 6

Analysis and control statement inventory:
               info 7
               tran 1

Output statements:
             .probe 0
           .measure 0
               save 1

Time for parsing: CPU = 24.741 ms, elapsed = 13.597 ms.
Time accumulated: CPU = 4.14501 s, elapsed = 2.20745 s.
Peak resident memory used = 103 Mbytes.

~~~~~~~~~~~~~~~~~~~~~~
Pre-Simulation Summary
~~~~~~~~~~~~~~~~~~~~~~
~~~~~~~~~~~~~~~~~~~~~~

************************************************
Transient Analysis `tran': time = (0 s -> 12 ns)
************************************************

Notice from spectre during IC analysis, during transient analysis `tran'.
    GminDC = 1 pS is large enough to noticeably affect the DC solution.
        dV(XBOOT.M35:int_s) = 258.021 uV
        Use the `gmin_check' option to eliminate or expand this report.

DC simulation time: CPU = 6.653 ms, elapsed = 3.32808 ms.

Opening the PSFXL file ../psf/tran.tran.tran ...
Important parameter values:
    start = 0 s
    outputstart = 0 s
    stop = 12 ns
    step = 12 ps
    maxstep = 240 ps
    ic = all
    useprevic = no
    skipdc = no
    reltol = 1e-03
    abstol(V) = 1 uV
    abstol(I) = 1 pA
    temp = 27 C
    tnom = 27 C
    tempeffects = all
    errpreset = moderate
    method = traponly
    lteratio = 3.5
    relref = sigglobal
    cmin = 0 F
    gmin = 1 pS


Output and IC/nodeset summary:
                 save   6       (current)
                 save   24      (voltage)

    tran: time = 340 ps      (2.83 %), step = 160 ps       (1.33 %)

Warning from spectre at time = 519.782 ps during transient analysis `tran'.
    WARNING (CMI-2753): XBOOT.M8: Vgb(=1.03141 V) has exceeded vgb_max(=990 mV).
    WARNING (CMI-2753): XBOOT.M25: Vgb(=990.577 mV) has exceeded vgb_max(=990 mV).
    WARNING (CMI-2753): XBOOT.M7: Vgb(=1.03141 V) has exceeded vgb_max(=990 mV).
    WARNING (CMI-2753): XBOOT.M26: Vgb(=990.577 mV) has exceeded vgb_max(=990 mV).
    WARNING (CMI-2755): XBOOT.M4: Vbd(=-1.03141 V) has exceeded vbd_max(=990 mV).
    WARNING (CMI-2755): XBOOT.M31: Vbd(=-990.577 mV) has exceeded vbd_max(=990 mV).
Warning from spectre at time = 521.481 ps during transient analysis `tran'.
    WARNING (CMI-2753): XBOOT.M8: Vgb(=1.10713 V) has exceeded vgb_max(=990 mV).
        Further occurrences of this warning will be suppressed.
    WARNING (CMI-2755): XBOOT.M4: Vbd(=-1.10713 V) has exceeded vbd_max(=990 mV).
    WARNING (CMI-2755): XBOOT.M31: Vbd(=-1.05444 V) has exceeded vbd_max(=990 mV).
Warning from spectre at time = 523.323 ps during transient analysis `tran'.
    WARNING (CMI-2755): XBOOT.M4: Vbd(=-1.17305 V) has exceeded vbd_max(=990 mV).
        Further occurrences of this warning will be suppressed.
Notice from spectre at time = 846.89 ps during transient analysis `tran'.
    Found trapezoidal ringing on node VDD_SRC:p.
Notice from spectre at time = 1.08689 ns during transient analysis `tran'.
    Found trapezoidal ringing on node VDD_SRC:p.

    tran: time = 1.087 ns    (9.06 %), step = 240 ps          (2 %)

Notice from spectre at time = 1.32689 ns during transient analysis `tran'.
    Found trapezoidal ringing on node VDD_SRC:p.
Notice from spectre at time = 1.56689 ns during transient analysis `tran'.
    Found trapezoidal ringing on node VDD_SRC:p.

    tran: time = 1.567 ns    (13.1 %), step = 240 ps          (2 %)

Notice from spectre at time = 1.80689 ns during transient analysis `tran'.
    Found trapezoidal ringing on node VDD_SRC:p.
        Further occurrences of this notice will be suppressed.

    tran: time = 2.287 ns    (19.1 %), step = 240 ps          (2 %)

Warning from spectre at time = 2.5098 ns during transient analysis `tran'.
    WARNING (CMI-2754): XBOOT.M8: Vgd(=993.453 mV) has exceeded vgd_max(=990 mV).
    WARNING (CMI-2752): XBOOT.M7: Vgs(=993.453 mV) has exceeded vgs_max(=990 mV).
Warning from spectre at time = 2.51 ns during transient analysis `tran'.
    WARNING (CMI-2754): XBOOT.M8: Vgd(=1.00382 V) has exceeded vgd_max(=990 mV).
    WARNING (CMI-2752): XBOOT.M7: Vgs(=1.00382 V) has exceeded vgs_max(=990 mV).
Warning from spectre at time = 2.51013 ns during transient analysis `tran'.
    WARNING (CMI-2754): XBOOT.M8: Vgd(=1.01106 V) has exceeded vgd_max(=990 mV).
    WARNING (CMI-2754): XBOOT.M25: Vgd(=993.547 mV) has exceeded vgd_max(=990 mV).
    WARNING (CMI-2752): XBOOT.M7: Vgs(=1.01106 V) has exceeded vgs_max(=990 mV).
    WARNING (CMI-2752): XBOOT.M26: Vgs(=993.547 mV) has exceeded vgs_max(=990 mV).
    WARNING (CMI-2751): XBOOT.M4: Vds(=994.343 mV) has exceeded vds_max(=990 mV).
Warning from spectre at time = 2.51027 ns during transient analysis `tran'.
    WARNING (CMI-2754): XBOOT.M8: Vgd(=1.01877 V) has exceeded vgd_max(=990 mV).
        Further occurrences of this warning will be suppressed.
    WARNING (CMI-2752): XBOOT.M7: Vgs(=1.01877 V) has exceeded vgs_max(=990 mV).
        Further occurrences of this warning will be suppressed.
    WARNING (CMI-2751): XBOOT.M4: Vds(=1.02144 V) has exceeded vds_max(=990 mV).
Warning from spectre at time = 2.51042 ns during transient analysis `tran'.
    WARNING (CMI-2751): XBOOT.M4: Vds(=1.04095 V) has exceeded vds_max(=990 mV).
Warning from spectre at time = 2.51069 ns during transient analysis `tran'.
    WARNING (CMI-2751): XBOOT.M4: Vds(=1.06411 V) has exceeded vds_max(=990 mV).
    WARNING (CMI-2751): XBOOT.M31: Vds(=996.883 mV) has exceeded vds_max(=990 mV).
        Further occurrences of this warning will be suppressed.

    tran: time = 2.808 ns    (23.4 %), step = 108.9 ps     (908 m%)
    tran: time = 3.506 ns    (29.2 %), step = 240 ps          (2 %)
    tran: time = 3.986 ns    (33.2 %), step = 240 ps          (2 %)
    tran: time = 4.706 ns    (39.2 %), step = 240 ps          (2 %)
    tran: time = 5.186 ns    (43.2 %), step = 240 ps          (2 %)
    tran: time = 5.706 ns    (47.5 %), step = 71.01 ps     (592 m%)
    tran: time = 6.328 ns    (52.7 %), step = 240 ps          (2 %)
    tran: time = 7.048 ns    (58.7 %), step = 240 ps          (2 %)
    tran: time = 7.505 ns    (62.5 %), step = 217.3 ps     (1.81 %)
    tran: time = 8.265 ns    (68.9 %), step = 240 ps          (2 %)
    tran: time = 8.745 ns    (72.9 %), step = 240 ps          (2 %)
    tran: time = 9.465 ns    (78.9 %), step = 240 ps          (2 %)
    tran: time = 9.945 ns    (82.9 %), step = 240 ps          (2 %)
    tran: time = 10.5 ns     (87.5 %), step = 157.4 ps     (1.31 %)
    tran: time = 11.33 ns    (94.4 %), step = 240 ps          (2 %)
    tran: time = 11.81 ns    (98.4 %), step = 240 ps          (2 %)
Number of accepted tran steps =             246

Notice from spectre during transient analysis `tran'.
    Trapezoidal ringing is detected during tran analysis.
        Please use method=trap for better results and performance.


Maximum value achieved for any signal of each quantity:
V: V(XBOOT.net3) = 1.395 V
I: I(VDD_SRC:p) = 1.004 mA
If your circuit contains signals of the same quantity that are vastly different in size (such as high voltage circuitry combined with low voltage control circuitry), you should consider specifying global option `bin_relref=yes'.

~~~~~~~~~~~~~~~~~~~~~~~~~~~~~~~~~
Post-Transient Simulation Summary
~~~~~~~~~~~~~~~~~~~~~~~~~~~~~~~~~
   -   To further speed up simulation, consider
          add ++aps on command line
~~~~~~~~~~~~~~~~~~~~~~~~~~~~~~~~~


During simulation, the CPU load for active processors is :
        Spectre  0 (100.0 %)     1 (22.8 %)      2 (7.1 %)       3 (8.6 %)
                 4 (11.6 %)      5 (100.0 %)     6 (12.6 %)      7 (24.6 %)
                 8 (3.1 %)       9 (100.0 %)    10 (11.2 %)     11 (2.7 %)
                12 (2.3 %)      13 (96.9 %)     14 (7.2 %)      15 (1.3 %)
        Other
Initial condition solution time: CPU = 7.166 ms, elapsed = 3.58915 ms.
Intrinsic tran analysis time:    CPU = 315.797 ms, elapsed = 158.331 ms.
Total time required for tran analysis `tran': CPU = 334.216 ms, elapsed = 167.529 ms.
Time accumulated: CPU = 4.50662 s, elapsed = 2.38919 s.
Peak resident memory used = 105 Mbytes.


Notice from spectre.
    33 notices suppressed.
    781 warnings suppressed.

finalTimeOP: writing operating point information to rawfile.

Opening the PSF file ../psf/finalTimeOP.info ...
modelParameter: writing model parameter values to rawfile.

Opening the PSF file ../psf/modelParameter.info ...
element: writing instance parameter values to rawfile.

Opening the PSF file ../psf/element.info ...
outputParameter: writing output parameter values to rawfile.

Opening the PSF file ../psf/outputParameter.info ...
designParamVals: writing netlist parameters to rawfile.

Opening the PSFASCII file ../psf/designParamVals.info ...
primitives: writing primitives to rawfile.

Opening the PSFASCII file ../psf/primitives.info.primitives ...
subckts: writing subcircuits to rawfile.

Opening the PSFASCII file ../psf/subckts.info.subckts ...

Aggregate audit (11:07:18 AM, Thur Jun 18, 2026):
Time used: CPU = 4.79 s, elapsed = 4.79 s, util. = 100%.
Time spent in licensing: elapsed = 74.7 ms.
Peak memory used = 110 Mbytes.
Simulation started at: 11:07:16 AM, Thur Jun 18, 2026, ended at: 11:07:18 AM, Thur Jun 18, 2026, with elapsed time (wall clock): 4.79 s.
spectre completes with 0 errors, 30 warnings, and 10 notices.
