
Spectre (R) Circuit Simulator
Version 18.1.0.077 64bit -- 1 Aug 2018
Copyright (C) 1989-2018 Cadence Design Systems, Inc. All rights reserved worldwide. Cadence and Spectre are registered trademarks of Cadence Design Systems, Inc. All others are the property of their respective holders.

Includes RSA BSAFE(R) Cryptographic or Security Protocol Software from RSA Security, Inc.

User: IC   Host: IC   HostID: 7F0100   PID: 23680
Memory  available: 126.6974 MB  physical: 16.7718 GB
Linux   : CentOS Linux release 7.7.1908 (Core)
CPU Type: Intel(R) Core(TM) i9-14900HX
All processors running at 2419.2 MHz
        Socket: Processors
        0:       0,  1,  2,  3
        1:       4,  5,  6,  7
        2:       8,  9, 10, 11
        3:      12, 13, 14, 15

System load averages (1min, 5min, 15min) : 22.2 %, 17.2 %, 14.2 %
This is a virtual machine


Simulating `input.scs' on IC at 11:48:45 AM, Thur Jun 18, 2026 (process id: 23680).
Current working directory: /home/IC/simulation/SAR9B_400MV/TB_SUBMOD_ASYCTRL_9CLK_PERF/maestro/results/maestro/Interactive.2/1/TRAN/netlist
Environment variable:
    SPECTRE_DEFAULTS=-E
Command line:
    /opt/eda/cadence/SPECTRE181/tools.lnx86/bin/spectre -64 input.scs  \
        +escchars +log ../psf/spectre.out -format psfxl -raw ../psf  \
        +lqtimeout 900 -maxw 5 -maxn 5 -ahdllibdir  \
        /home/IC/simulation/SAR9B_400MV/TB_SUBMOD_ASYCTRL_9CLK_PERF/maestro/results/maestro/Interactive.2/sharedData/CDS/ahdl/input.ahdlSimDB  \
        +logstatus

Loading /opt/eda/cadence/SPECTRE181/tools.lnx86/cmi/lib/64bit/5.0/libinfineon_sh.so ...
Loading /opt/eda/cadence/SPECTRE181/tools.lnx86/cmi/lib/64bit/5.0/libphilips_o_sh.so ...
Loading /opt/eda/cadence/SPECTRE181/tools.lnx86/cmi/lib/64bit/5.0/libphilips_sh.so ...
Loading /opt/eda/cadence/SPECTRE181/tools.lnx86/cmi/lib/64bit/5.0/libsparam_sh.so ...
Loading /opt/eda/cadence/SPECTRE181/tools.lnx86/cmi/lib/64bit/5.0/libstmodels_sh.so ...
Reading file:  /home/IC/simulation/SAR9B_400MV/TB_SUBMOD_ASYCTRL_9CLK_PERF/maestro/results/maestro/Interactive.2/1/TRAN/netlist/input.scs
Reading file:  /opt/eda/cadence/SPECTRE181/tools.lnx86/spectre/etc/configs/mapsubckt.cfg
Reading file:  /opt/eda/cadence/SPECTRE181/tools.lnx86/spectre/etc/configs/spectre.cfg
Reading file:  /usr/include/stdc-predef.h
Reading file:  /home/IC/Desktop/Project/project_tsmcN28_NEW/project_tsmcN28_NEW/iPDK_CRN28HPC+_v1.0_2p2a_20160226_all/CRN28HPCp/models/spectre/toplevel.scs
Reading file:  /home/IC/Desktop/Project/project_tsmcN28_NEW/project_tsmcN28_NEW/iPDK_CRN28HPC+_v1.0_2p2a_20160226_all/CRN28HPCp/models/spectre/crn28hpcp_lct_1d8_elk_v1d0_2p2_shrink0d9_embedded_usage.scs
Reading file:  /home/IC/Desktop/Project/project_tsmcN28_NEW/project_tsmcN28_NEW/iPDK_CRN28HPC+_v1.0_2p2a_20160226_all/CRN28HPCp/models/spectre/crn28hpcp_lct_1d8_elk_v1d0_2p2.scs
Reading file:  /home/IC/Desktop/Project/project_tsmcN28_NEW/project_tsmcN28_NEW/iPDK_CRN28HPC+_v1.0_2p2a_20160226_all/CRN28HPCp/models/spectre/res_metal.scs
Reading file:  /home/IC/Desktop/Project/project_tsmcN28_NEW/project_tsmcN28_NEW/iPDK_CRN28HPC+_v1.0_2p2a_20160226_all/CRN28HPCp/models/spectre/cln28hpcp_hv_1d8_elk_v0d1_2p1_shrink0d9_embedded_usage.scs
Reading file:  /home/IC/Desktop/Project/project_tsmcN28_NEW/project_tsmcN28_NEW/iPDK_CRN28HPC+_v1.0_2p2a_20160226_all/CRN28HPCp/models/spectre/cln28hpcp_hv_1d8_elk_v0d1_2p1.scs
Time for NDB Parsing: CPU = 3.69067 s, elapsed = 2.03821 s.
Time accumulated: CPU = 3.76581 s, elapsed = 2.03823 s.
Peak resident memory used = 83.4 Mbytes.

Reading link:  /opt/eda/cadence/SPECTRE181/tools.lnx86/spectre/etc/ahdl/discipline.h
Reading file:  /opt/eda/cadence/SPECTRE181/tools.lnx86/spectre/etc/ahdl/disciplines.vams
Reading link:  /opt/eda/cadence/SPECTRE181/tools.lnx86/spectre/etc/ahdl/constants.h
Reading file:  /opt/eda/cadence/SPECTRE181/tools.lnx86/spectre/etc/ahdl/constants.vams

Warning from spectre during hierarchy flattening.
    WARNING (SFE-1131): Duplicate scope option `scalefactor' with scope `TopCircuit'. (using last value specified).
    WARNING (SFE-1131): Duplicate scope option `scalefactor' with scope `TopCircuit'. (using last value specified).
    WARNING (SFE-1131): Duplicate scope option `scalefactor' with scope `TopCircuit'. (using last value specified).
    WARNING (SFE-1131): Duplicate scope option `scalefactor' with scope `TopCircuit'. (using last value specified).

Time for Elaboration: CPU = 613.725 ms, elapsed = 306.864 ms.
Time accumulated: CPU = 4.38053 s, elapsed = 2.34558 s.
Peak resident memory used = 98 Mbytes.


Warning from spectre during hierarchy flattening.
    WARNING (SPECTRE-17101): The value 'psf' specified using the 'checklimitdest' option will no longer be supported in future releases.


Time for EDB Visiting: CPU = 78.652 ms, elapsed = 39.676 ms.
Time accumulated: CPU = 4.46845 s, elapsed = 2.3899 s.
Peak resident memory used = 99.9 Mbytes.


Notice from spectre during topology check.
    Only one connection to node `0'.


Global user options:
         psfversion = 1.1.0
            vabstol = 1e-06
            iabstol = 1e-12
               temp = 27
               gmin = 1e-12
             rforce = 1
           maxnotes = 5
           maxwarns = 5
             digits = 5
               cols = 80
             pivrel = 0.001
           sensfile = ../psf/sens.output
     checklimitdest = psf
               save = allpub
        scalefactor = 0.9
        scalefactor = 0.9
        scalefactor = 0.9
        scalefactor = 0.9
        scalefactor = 0.9
             reltol = 0.001
               tnom = 27
             scalem = 1
              scale = 1

Scoped user options:

Circuit inventory:
              nodes 125
              bsim4 278
          capacitor 1
            vsource 4

Analysis and control statement inventory:
               info 7
               tran 1

Output statements:
             .probe 0
           .measure 0
               save 1

Time for parsing: CPU = 46.273 ms, elapsed = 23.828 ms.
Time accumulated: CPU = 4.5177 s, elapsed = 2.41521 s.
Peak resident memory used = 102 Mbytes.

~~~~~~~~~~~~~~~~~~~~~~
Pre-Simulation Summary
~~~~~~~~~~~~~~~~~~~~~~
~~~~~~~~~~~~~~~~~~~~~~

************************************************
Transient Analysis `tran': time = (0 s -> 28 ns)
************************************************

Notice from spectre during IC analysis, during transient analysis `tran'.
    GminDC = 1 pS is large enough to noticeably affect the DC solution.
        dV(XASY.I6.I0.M3:int_s) = 119.226 uV
        Use the `gmin_check' option to eliminate or expand this report.

DC simulation time: CPU = 91.213 ms, elapsed = 45.541 ms.

Opening the PSFXL file ../psf/tran.tran.tran ...
Important parameter values:
    start = 0 s
    outputstart = 0 s
    stop = 28 ns
    step = 28 ps
    maxstep = 560 ps
    ic = all
    useprevic = no
    skipdc = no
    reltol = 1e-03
    abstol(V) = 1 uV
    abstol(I) = 1 pA
    temp = 27 C
    tnom = 27 C
    tempeffects = all
    errpreset = moderate
    method = traponly
    lteratio = 3.5
    relref = sigglobal
    cmin = 0 F
    gmin = 1 pS


Output and IC/nodeset summary:
                 save   4       (current)
                 save   137     (voltage)

    tran: time = 742.2 ps    (2.65 %), step = 64.44 ps     (230 m%)
    tran: time = 2.241 ns       (8 %), step = 258.8 ps     (924 m%)
    tran: time = 3.505 ns    (12.5 %), step = 196.4 ps     (701 m%)
    tran: time = 4.943 ns    (17.7 %), step = 114.8 ps     (410 m%)
    tran: time = 6.5 ns      (23.2 %), step = 260.6 ps     (931 m%)
    tran: time = 7.741 ns    (27.6 %), step = 81.09 ps     (290 m%)
    tran: time = 9.309 ns    (33.2 %), step = 212.9 ps     (760 m%)
    tran: time = 10.5 ns     (37.5 %), step = 277.8 ps     (992 m%)
    tran: time = 12.22 ns    (43.6 %), step = 320.3 ps     (1.14 %)
    tran: time = 13.31 ns    (47.5 %), step = 212.9 ps     (760 m%)
    tran: time = 14.74 ns    (52.7 %), step = 65.2 ps      (233 m%)
    tran: time = 16.22 ns    (57.9 %), step = 317.3 ps     (1.13 %)
    tran: time = 17.51 ns    (62.5 %), step = 227.6 ps     (813 m%)

Warning from spectre at time = 18.5041 ns during transient analysis `tran'.
    WARNING (CMI-2751): XASY.I10.M7: Vds(=-1.00636 V) has exceeded vds_max(=990 mV).
Warning from spectre at time = 18.5045 ns during transient analysis `tran'.
    WARNING (CMI-2751): XASY.I10.M7: Vds(=-1.01962 V) has exceeded vds_max(=990 mV).
Warning from spectre at time = 18.505 ns during transient analysis `tran'.
    WARNING (CMI-2751): XASY.I10.M7: Vds(=-1.03219 V) has exceeded vds_max(=990 mV).
Warning from spectre at time = 18.5051 ns during transient analysis `tran'.
    WARNING (CMI-2751): XASY.I10.M7: Vds(=-1.03322 V) has exceeded vds_max(=990 mV).
Warning from spectre at time = 18.5052 ns during transient analysis `tran'.
    WARNING (CMI-2751): XASY.I10.M7: Vds(=-1.03519 V) has exceeded vds_max(=990 mV).
        Further occurrences of this warning will be suppressed.

    tran: time = 18.99 ns    (67.8 %), step = 157.4 ps     (562 m%)
    tran: time = 20.5 ns     (73.2 %), step = 299.9 ps     (1.07 %)
    tran: time = 21.72 ns    (77.6 %), step = 91.13 ps     (325 m%)
    tran: time = 23.19 ns    (82.8 %), step = 208.3 ps     (744 m%)
    tran: time = 24.5 ns     (87.5 %), step = 299.8 ps     (1.07 %)
    tran: time = 25.9 ns     (92.5 %), step = 182.3 ps     (651 m%)
    tran: time = 27.35 ns    (97.7 %), step = 155.8 ps     (556 m%)
Number of accepted tran steps =             1592

Maximum value achieved for any signal of each quantity:
V: V(XASY.I10.M6:int_d) = 1.047 V
I: I(VDD_SRC:p) = 1.738 mA
If your circuit contains signals of the same quantity that are vastly different in size (such as high voltage circuitry combined with low voltage control circuitry), you should consider specifying global option `bin_relref=yes'.

~~~~~~~~~~~~~~~~~~~~~~~~~~~~~~~~~
Post-Transient Simulation Summary
~~~~~~~~~~~~~~~~~~~~~~~~~~~~~~~~~
   -   To further speed up simulation, consider
          add ++aps on command line
~~~~~~~~~~~~~~~~~~~~~~~~~~~~~~~~~


During simulation, the CPU load for active processors is :
        Spectre  0 (48.5 %)      1 (52.0 %)      2 (16.9 %)      3 (44.8 %)
                 4 (31.2 %)      5 (53.0 %)      6 (91.3 %)      7 (11.7 %)
                 8 (29.8 %)      9 (32.6 %)     10 (39.3 %)     11 (30.6 %)
                12 (58.4 %)     13 (58.2 %)     14 (94.6 %)     15 (62.8 %)
        Other
Initial condition solution time: CPU = 91.657 ms, elapsed = 45.773 ms.
Intrinsic tran analysis time:    CPU = 8.43948 s, elapsed = 8.24757 s.
Total time required for tran analysis `tran': CPU = 8.54712 s, elapsed = 8.30135 s.
Time accumulated: CPU = 13.1001 s, elapsed = 10.7523 s.
Peak resident memory used = 112 Mbytes.


Notice from spectre.
    164 warnings suppressed.

finalTimeOP: writing operating point information to rawfile.

Opening the PSF file ../psf/finalTimeOP.info ...
modelParameter: writing model parameter values to rawfile.

Opening the PSF file ../psf/modelParameter.info ...
element: writing instance parameter values to rawfile.

Opening the PSF file ../psf/element.info ...
outputParameter: writing output parameter values to rawfile.

Opening the PSF file ../psf/outputParameter.info ...
designParamVals: writing netlist parameters to rawfile.

Opening the PSFASCII file ../psf/designParamVals.info ...
primitives: writing primitives to rawfile.

Opening the PSFASCII file ../psf/primitives.info.primitives ...
subckts: writing subcircuits to rawfile.

Opening the PSFASCII file ../psf/subckts.info.subckts ...

Aggregate audit (11:48:56 AM, Thur Jun 18, 2026):
Time used: CPU = 13.4 s, elapsed = 13.4 s, util. = 100%.
Time spent in licensing: elapsed = 75.5 ms.
Peak memory used = 112 Mbytes.
Simulation started at: 11:48:45 AM, Thur Jun 18, 2026, ended at: 11:48:56 AM, Thur Jun 18, 2026, with elapsed time (wall clock): 13.4 s.
spectre completes with 0 errors, 10 warnings, and 3 notices.
