
Spectre (R) Circuit Simulator
Version 18.1.0.077 64bit -- 1 Aug 2018
Copyright (C) 1989-2018 Cadence Design Systems, Inc. All rights reserved worldwide. Cadence and Spectre are registered trademarks of Cadence Design Systems, Inc. All others are the property of their respective holders.

Includes RSA BSAFE(R) Cryptographic or Security Protocol Software from RSA Security, Inc.

User: IC   Host: IC   HostID: 7F0100   PID: 98299
Memory  available: 9.5462 GB  physical: 16.7718 GB
Linux   : CentOS Linux release 7.7.1908 (Core)
CPU Type: Intel(R) Core(TM) i9-14900HX
All processors running at 2419.2 MHz
        Socket: Processors
        0:       0,  1,  2,  3
        1:       4,  5,  6,  7
        2:       8,  9, 10, 11
        3:      12, 13, 14, 15
        
System load averages (1min, 5min, 15min) : 3.9 %, 3.4 %, 6.1 %
HPC is enabled
This is a virtual machine


Simulating `input.scs' on IC at 12:59:05 AM, Wed Jun 17, 2026 (process id: 98299).
Current working directory: /home/IC/simulation/8BIT400MVcmredundancySAR/ADC_redun1_tb/maestro/results/maestro/ExplorerRun.0/1/Vcmbased_ADC_tb_1/netlist
Environment variable:
    SPECTRE_DEFAULTS=-E
Command line:
    /opt/eda/cadence/SPECTRE181/tools.lnx86/bin/spectre -64 input.scs  \
        +escchars +log ../psf/spectre.out -format psfxl -raw ../psf  \
        +aps +lqtimeout 900 -maxw 5 -maxn 5 -ahdllibdir  \
        /home/IC/simulation/8BIT400MVcmredundancySAR/ADC_redun1_tb/maestro/results/maestro/ExplorerRun.0/sharedData/CDS/ahdl/input.ahdlSimDB  \
        +logstatus

Loading /opt/eda/cadence/SPECTRE181/tools.lnx86/cmi/lib/64bit/5.0/libinfineon_sh.so ...
Loading /opt/eda/cadence/SPECTRE181/tools.lnx86/cmi/lib/64bit/5.0/libphilips_o_sh.so ...
Loading /opt/eda/cadence/SPECTRE181/tools.lnx86/cmi/lib/64bit/5.0/libphilips_sh.so ...
Loading /opt/eda/cadence/SPECTRE181/tools.lnx86/cmi/lib/64bit/5.0/libsparam_sh.so ...
Loading /opt/eda/cadence/SPECTRE181/tools.lnx86/cmi/lib/64bit/5.0/libstmodels_sh.so ...
Reading file:  /home/IC/simulation/8BIT400MVcmredundancySAR/ADC_redun1_tb/maestro/results/maestro/ExplorerRun.0/1/Vcmbased_ADC_tb_1/netlist/input.scs
Reading file:  /opt/eda/cadence/SPECTRE181/tools.lnx86/spectre/etc/configs/mapsubckt.cfg
Reading file:  /opt/eda/cadence/SPECTRE181/tools.lnx86/spectre/etc/configs/spectre.cfg
Reading file:  /usr/include/stdc-predef.h
Reading file:  /home/IC/Desktop/Project/project_tsmcN28_NEW/project_tsmcN28_NEW/iPDK_CRN28HPC+_v1.0_2p2a_20160226_all/CRN28HPCp/models/spectre/toplevel.scs
Reading file:  /home/IC/Desktop/Project/project_tsmcN28_NEW/project_tsmcN28_NEW/iPDK_CRN28HPC+_v1.0_2p2a_20160226_all/CRN28HPCp/models/spectre/crn28hpcp_lct_1d8_elk_v1d0_2p2_shrink0d9_embedded_usage.scs
Reading file:  /home/IC/Desktop/Project/project_tsmcN28_NEW/project_tsmcN28_NEW/iPDK_CRN28HPC+_v1.0_2p2a_20160226_all/CRN28HPCp/models/spectre/crn28hpcp_lct_1d8_elk_v1d0_2p2.scs
Reading file:  /home/IC/Desktop/Project/project_tsmcN28_NEW/project_tsmcN28_NEW/iPDK_CRN28HPC+_v1.0_2p2a_20160226_all/CRN28HPCp/models/spectre/res_metal.scs
Reading file:  /home/IC/Desktop/Project/project_tsmcN28_NEW/project_tsmcN28_NEW/iPDK_CRN28HPC+_v1.0_2p2a_20160226_all/CRN28HPCp/models/spectre/cln28hpcp_hv_1d8_elk_v0d1_2p1_shrink0d9_embedded_usage.scs
Reading file:  /home/IC/Desktop/Project/project_tsmcN28_NEW/project_tsmcN28_NEW/iPDK_CRN28HPC+_v1.0_2p2a_20160226_all/CRN28HPCp/models/spectre/cln28hpcp_hv_1d8_elk_v0d1_2p1.scs
Reading file:  /home/IC/Desktop/Project/8BIT400MVcmredundancySAR/DAC8b_va/veriloga/veriloga.va
Reading file:  /opt/eda/cadence/SPECTRE181/tools.lnx86/spectre/etc/ahdl/constants.vams
Reading file:  /opt/eda/cadence/SPECTRE181/tools.lnx86/spectre/etc/ahdl/disciplines.vams
Reading file:  /home/IC/Desktop/Project/8BIT400MVcmredundancySAR/decode_redun9to8/veriloga/veriloga.va
Time for NDB Parsing: CPU = 882.649 ms, elapsed = 497.298 ms.
Time accumulated: CPU = 894.341 ms, elapsed = 497.301 ms.
Peak resident memory used = 90 Mbytes.

Existing shared object for module DAC8b_va is up to date.
Installed compiled interface for DAC8b_va.
Existing shared object for module decode_redun9to8 is up to date.
Installed compiled interface for decode_redun9to8.
Reading link:  /opt/eda/cadence/SPECTRE181/tools.lnx86/spectre/etc/ahdl/discipline.h
Reading link:  /opt/eda/cadence/SPECTRE181/tools.lnx86/spectre/etc/ahdl/constants.h

Warning from spectre during hierarchy flattening.
    WARNING (SFE-1131): Duplicate scope option `scalefactor' with scope `TopCircuit'. (using last value specified).
    WARNING (SFE-1131): Duplicate scope option `scalefactor' with scope `TopCircuit'. (using last value specified).
    WARNING (SFE-1131): Duplicate scope option `scalefactor' with scope `TopCircuit'. (using last value specified).
    WARNING (SFE-1131): Duplicate scope option `scalefactor' with scope `TopCircuit'. (using last value specified).

Existing shared object for module bsource_965053 is up to date.
Installed compiled interface for bsource_965053.
Time for Elaboration: CPU = 275.322 ms, elapsed = 139.708 ms.
Time accumulated: CPU = 1.16985 s, elapsed = 637.103 ms.
Peak resident memory used = 115 Mbytes.


Warning from spectre during hierarchy flattening.
    WARNING (SPECTRE-17101): The value 'psf' specified using the 'checklimitdest' option will no longer be supported in future releases.



Warning from spectre during hierarchy flattening.
    WARNING (SPECTRE-8527): There are some nodes and instances removed from the netlist topology check. Check the circuit and correct the topology. Or use preserve_inst to keep them if necessary.

***********************************************
  Total removed instances 2 ( dangling 2, terminals connected together 0)  

Warning from spectre during hierarchy flattening.
    WARNING (SPECTRE-8529): Dangling instance. I0.C15 is removed.
    WARNING (SPECTRE-8529): Dangling instance. I0.C16 is removed.


  Total removed nodes 2 ( dangling nodes 2, floating nodes 0 )

Warning from spectre during hierarchy flattening.
    WARNING (SPECTRE-8530): Dangling node. I0.net15 is removed.
    WARNING (SPECTRE-8530): Dangling node. I0.net16 is removed.

***********************************************
Time for EDB Visiting: CPU = 18.543 ms, elapsed = 18.3101 ms.
Time accumulated: CPU = 1.18853 s, elapsed = 655.544 ms.
Peak resident memory used = 119 Mbytes.


Notice from spectre during topology check.
    Only one connection to node `out'.
Notice from spectre during initial setup.
    Multithreading is disabled due to the size of the design being too small.


Global user options:
         psfversion = 1.1.0
            vabstol = 1e-06
            iabstol = 1e-12
               temp = 27
               gmin = 1e-12
             rforce = 1
           maxnotes = 5
           maxwarns = 5
             digits = 5
               cols = 80
             pivrel = 0.001
           sensfile = ../psf/sens.output
     checklimitdest = psf
               save = allpub
        scalefactor = 0.9
        scalefactor = 0.9
        scalefactor = 0.9
        scalefactor = 0.9
        scalefactor = 0.9
             reltol = 0.001
               tnom = 27
             scalem = 1
              scale = 1

Scoped user options:

Circuit inventory:
              nodes 454
              bsim4 975   
     bsource_965053 2     
          capacitor 20    
           DAC8b_va 1     
   decode_redun9to8 1     
        transformer 2     
            vsource 7     

Analysis and control statement inventory:
               info 7     
               tran 1     

Output statements:
             .probe 0     
           .measure 0     
               save 0     


Notice from spectre during initial setup.
    1 vsources are short because their absolute value is less than or equal to 'vabsshort'.
    APS Enabled.

Time for parsing: CPU = 5.849 ms, elapsed = 8.19206 ms.
Time accumulated: CPU = 1.19446 s, elapsed = 663.822 ms.
Peak resident memory used = 121 Mbytes.

~~~~~~~~~~~~~~~~~~~~~~
Pre-Simulation Summary
~~~~~~~~~~~~~~~~~~~~~~
~~~~~~~~~~~~~~~~~~~~~~

*************************************************
Transient Analysis `tran': time = (0 s -> 2.7 us)
*************************************************
Trying `homotopy = gmin' for initial conditions.

Notice from spectre during IC analysis, during transient analysis `tran'.
    GminDC = 1 pS is large enough to noticeably affect the DC solution.
        dV(I0.net7) = 241.053 uV
        Use the `gmin_check' option to eliminate or expand this report.
    Bad pivoting is found during DC analysis. Option dc_pivot_check=yes is recommended for possible improvement of convergence.

DC simulation time: CPU = 373.637 ms, elapsed = 371.168 ms.

Opening the PSFXL file ../psf/tran.tran.tran ...
Important parameter values:
    start = 0 s
    outputstart = 0 s
    stop = 2.7 us
    step = 2.7 ns
    maxstep = 54 ns
    ic = all
    useprevic = no
    skipdc = no
    reltol = 1e-03
    abstol(V) = 1 uV
    abstol(I) = 1 pA
    temp = 27 C
    tnom = 27 C
    tempeffects = all
    errpreset = moderate
    method = traponly
    lteratio = 3.5
    relref = sigglobal
    cmin = 0 F
    gmin = 1 pS
    rabsshort = 1 mOhm


Notice from spectre during transient analysis `tran'.
    Multithreading is disabled due to the size of the design being too small.


Output and IC/nodeset summary:
                 save   6       (current)
                 save   451     (voltage)


Warning from spectre at time = 1.75013 ps during transient analysis `tran'.
    WARNING (CMI-2754): I0.I36.I2.M1: Vgd(=994.624 mV) has exceeded vgd_max(=990 mV).
    WARNING (CMI-2751): I0.I36.I0.M0: Vds(=1.01013 V) has exceeded vds_max(=990 mV).
    WARNING (CMI-2755): I0.I36.I0.M0: Vbd(=-1.01013 V) has exceeded vbd_max(=990 mV).
    WARNING (CMI-2752): I0.I36.I2.M0: Vgs(=1.01013 V) has exceeded vgs_max(=990 mV).
    WARNING (CMI-2753): I0.I36.I2.M0: Vgb(=1.01013 V) has exceeded vgb_max(=990 mV).
    WARNING (CMI-2754): I0.I36.I2.M0: Vgd(=994.624 mV) has exceeded vgd_max(=990 mV).
Warning from spectre at time = 1.99991 ps during transient analysis `tran'.
    WARNING (CMI-2751): I0.I36.I0.M0: Vds(=999.018 mV) has exceeded vds_max(=990 mV).
    WARNING (CMI-2755): I0.I36.I0.M0: Vbd(=-999.018 mV) has exceeded vbd_max(=990 mV).
    WARNING (CMI-2752): I0.I36.I2.M0: Vgs(=999.018 mV) has exceeded vgs_max(=990 mV).
    WARNING (CMI-2753): I0.I36.I2.M0: Vgb(=999.018 mV) has exceeded vgb_max(=990 mV).
Warning from spectre at time = 103.8 ps during transient analysis `tran'.
    WARNING (CMI-2751): I0.I27.I0.I5.M2: Vds(=-991.671 mV) has exceeded vds_max(=990 mV).
    WARNING (CMI-2751): I0.I27.I1.I5.M2: Vds(=-991.568 mV) has exceeded vds_max(=990 mV).
    WARNING (CMI-2751): I0.I27.I2.I5.M2: Vds(=-991.568 mV) has exceeded vds_max(=990 mV).
        Further occurrences of this warning will be suppressed.
Warning from spectre at time = 110.862 ps during transient analysis `tran'.
    WARNING (CMI-2753): I0.I37.M8: Vgb(=1.00467 V) has exceeded vgb_max(=990 mV).
    WARNING (CMI-2753): I0.I37.M25: Vgb(=1.00442 V) has exceeded vgb_max(=990 mV).
    WARNING (CMI-2753): I0.I37.M7: Vgb(=1.00467 V) has exceeded vgb_max(=990 mV).
        Further occurrences of this warning will be suppressed.
    WARNING (CMI-2755): I0.I37.M4: Vbd(=-1.00467 V) has exceeded vbd_max(=990 mV).
    WARNING (CMI-2755): I0.I37.M31: Vbd(=-1.00442 V) has exceeded vbd_max(=990 mV).
Warning from spectre at time = 111.602 ps during transient analysis `tran'.
    WARNING (CMI-2755): I0.I37.M4: Vbd(=-1.03634 V) has exceeded vbd_max(=990 mV).
        Further occurrences of this warning will be suppressed.
Warning from spectre at time = 513.495 ps during transient analysis `tran'.
    WARNING (CMI-2754): I0.I36.I5.M5: Vgd(=995.606 mV) has exceeded vgd_max(=990 mV).
    WARNING (CMI-2752): I0.I36.I5.M4: Vgs(=1.00347 V) has exceeded vgs_max(=990 mV).
    WARNING (CMI-2754): I0.I36.I5.M4: Vgd(=995.606 mV) has exceeded vgd_max(=990 mV).
Warning from spectre at time = 514.403 ps during transient analysis `tran'.
    WARNING (CMI-2754): I0.I36.I5.M5: Vgd(=1.0058 V) has exceeded vgd_max(=990 mV).
        Further occurrences of this warning will be suppressed.
    WARNING (CMI-2752): I0.I36.I5.M4: Vgs(=1.01327 V) has exceeded vgs_max(=990 mV).
Warning from spectre at time = 592.117 ps during transient analysis `tran'.
    WARNING (CMI-2752): I0.I37.M7: Vgs(=990.857 mV) has exceeded vgs_max(=990 mV).
        Further occurrences of this warning will be suppressed.

    tran: time = 14.81 ns    (549 m%), step = 1.718 ps    (63.6 u%)
    tran: time = 30.17 ns    (1.12 %), step = 1.544 ps    (57.2 u%)

Warning from spectre at time = 35.9611 ns during transient analysis `tran'.
    WARNING (CMI-2756): I0.I42.M5: Vbs(=-991.933 mV) has exceeded vbs_max (=990 mV).
Warning from spectre at time = 35.9636 ns during transient analysis `tran'.
    WARNING (CMI-2756): I0.I43.M4: Vbs(=992.589 mV) has exceeded vbs_max (=990 mV).
    WARNING (CMI-2756): I0.I42.M5: Vbs(=-993.797 mV) has exceeded vbs_max (=990 mV).
Warning from spectre at time = 35.9654 ns during transient analysis `tran'.
    WARNING (CMI-2756): I0.I43.M4: Vbs(=996.007 mV) has exceeded vbs_max (=990 mV).
    WARNING (CMI-2756): I0.I42.M5: Vbs(=-992.64 mV) has exceeded vbs_max (=990 mV).
        Further occurrences of this warning will be suppressed.

    tran: time = 46.11 ns    (1.71 %), step = 1.147 ps    (42.5 u%)
    tran: time = 63.92 ns    (2.37 %), step = 3.439 ps     (127 u%)
    tran: time = 67.5 ns      (2.5 %), step = 11.99 ps     (444 u%)
    tran: time = 85.19 ns    (3.16 %), step = 6.754 ps     (250 u%)
    tran: time = 103.2 ns    (3.82 %), step = 1.05 ps     (38.9 u%)
    tran: time = 120.7 ns    (4.47 %), step = 1.269 ps      (47 u%)
    tran: time = 137.1 ns    (5.08 %), step = 3.731 ps     (138 u%)
    tran: time = 153 ns      (5.67 %), step = 58.18 fs    (2.15 u%)
    tran: time = 168.3 ns    (6.23 %), step = 1.711 ps    (63.4 u%)
    tran: time = 183.6 ns     (6.8 %), step = 806.7 fs    (29.9 u%)
    tran: time = 199 ns      (7.37 %), step = 1.239 ps    (45.9 u%)
    tran: time = 202.5 ns     (7.5 %), step = 10.39 ps     (385 u%)
    tran: time = 217.6 ns    (8.06 %), step = 1.292 ps    (47.9 u%)
    tran: time = 232.5 ns    (8.61 %), step = 1.525 ps    (56.5 u%)
    tran: time = 247.9 ns    (9.18 %), step = 72.93 ps     (2.7 m%)
    tran: time = 262.3 ns    (9.72 %), step = 1.336 ps    (49.5 u%)
    tran: time = 279.4 ns    (10.3 %), step = 901.7 fs    (33.4 u%)
    tran: time = 298.3 ns      (11 %), step = 773.1 fs    (28.6 u%)
    tran: time = 316.6 ns    (11.7 %), step = 3.134 ps     (116 u%)
    tran: time = 334.4 ns    (12.4 %), step = 847 fs      (31.4 u%)
    tran: time = 337.5 ns    (12.5 %), step = 12.32 ps     (456 u%)
    tran: time = 355.7 ns    (13.2 %), step = 1.387 ps    (51.4 u%)
    tran: time = 373.6 ns    (13.8 %), step = 1.296 ps      (48 u%)
    tran: time = 389.7 ns    (14.4 %), step = 1.632 ps    (60.4 u%)
    tran: time = 408.3 ns    (15.1 %), step = 2.825 ps     (105 u%)
    tran: time = 425.1 ns    (15.7 %), step = 1.241 ps    (45.9 u%)
    tran: time = 441.1 ns    (16.3 %), step = 1.14 ps     (42.2 u%)
    tran: time = 456.9 ns    (16.9 %), step = 2.337 ps    (86.6 u%)
    tran: time = 472 ns      (17.5 %), step = 1.677 ps    (62.1 u%)
    tran: time = 472.5 ns    (17.5 %), step = 21.74 ps     (805 u%)
    tran: time = 487.7 ns    (18.1 %), step = 1.736 ps    (64.3 u%)
    tran: time = 503.5 ns    (18.6 %), step = 2.52 ps     (93.3 u%)
    tran: time = 518.8 ns    (19.2 %), step = 1.161 ps      (43 u%)
    tran: time = 535.8 ns    (19.8 %), step = 2.048 ps    (75.9 u%)
    tran: time = 553.4 ns    (20.5 %), step = 2.99 ps      (111 u%)
    tran: time = 571.3 ns    (21.2 %), step = 1.12 ps     (41.5 u%)
    tran: time = 588.4 ns    (21.8 %), step = 1.439 ps    (53.3 u%)
    tran: time = 604.1 ns    (22.4 %), step = 2.003 ps    (74.2 u%)
    tran: time = 607.5 ns    (22.5 %), step = 20.58 ps     (762 u%)
    tran: time = 623.7 ns    (23.1 %), step = 1.62 ps       (60 u%)
    tran: time = 639.2 ns    (23.7 %), step = 618 fs      (22.9 u%)
    tran: time = 654.1 ns    (24.2 %), step = 1.936 ps    (71.7 u%)
    tran: time = 670 ns      (24.8 %), step = 3.572 ps     (132 u%)
    tran: time = 685.8 ns    (25.4 %), step = 3.191 ps     (118 u%)
    tran: time = 700.8 ns      (26 %), step = 1.288 ps    (47.7 u%)
    tran: time = 715.7 ns    (26.5 %), step = 1.562 ps    (57.9 u%)
    tran: time = 729.7 ns      (27 %), step = 845.9 fs    (31.3 u%)
    tran: time = 742.5 ns    (27.5 %), step = 16.35 ps     (606 u%)
    tran: time = 757.2 ns      (28 %), step = 1.659 ps    (61.4 u%)
    tran: time = 771.8 ns    (28.6 %), step = 4.358 ps     (161 u%)
    tran: time = 786.1 ns    (29.1 %), step = 885 fs      (32.8 u%)
    tran: time = 801.2 ns    (29.7 %), step = 1.727 ps      (64 u%)
    tran: time = 815.8 ns    (30.2 %), step = 1.072 ps    (39.7 u%)
    tran: time = 830.8 ns    (30.8 %), step = 1.023 ps    (37.9 u%)
    tran: time = 846.1 ns    (31.3 %), step = 2.178 ps    (80.7 u%)
    tran: time = 861.2 ns    (31.9 %), step = 1.096 ps    (40.6 u%)
    tran: time = 876.7 ns    (32.5 %), step = 2.185 ps    (80.9 u%)
    tran: time = 877.5 ns    (32.5 %), step = 11.09 ps     (411 u%)
    tran: time = 892.6 ns    (33.1 %), step = 1.724 ps    (63.9 u%)
    tran: time = 908.4 ns    (33.6 %), step = 961 fs      (35.6 u%)
    tran: time = 924.8 ns    (34.3 %), step = 1.351 ps      (50 u%)
    tran: time = 943.2 ns    (34.9 %), step = 1.37 ps     (50.7 u%)
    tran: time = 961 ns      (35.6 %), step = 603.6 fs    (22.4 u%)
    tran: time = 977.6 ns    (36.2 %), step = 2.893 ps     (107 u%)
    tran: time = 993.8 ns    (36.8 %), step = 1.657 ps    (61.4 u%)
    tran: time = 1.01 us     (37.4 %), step = 881.2 fs    (32.6 u%)
    tran: time = 1.013 us    (37.5 %), step = 17.19 ps     (637 u%)
    tran: time = 1.029 us    (38.1 %), step = 3.452 ps     (128 u%)
    tran: time = 1.044 us    (38.7 %), step = 1.834 ps    (67.9 u%)
    tran: time = 1.06 us     (39.3 %), step = 936 fs      (34.7 u%)
    tran: time = 1.076 us    (39.9 %), step = 1.104 ps    (40.9 u%)
    tran: time = 1.092 us    (40.4 %), step = 2.741 ps     (102 u%)
    tran: time = 1.108 us      (41 %), step = 1.942 ps    (71.9 u%)
    tran: time = 1.124 us    (41.6 %), step = 1.139 ps    (42.2 u%)
    tran: time = 1.139 us    (42.2 %), step = 999.5 fs      (37 u%)
    tran: time = 1.148 us    (42.5 %), step = 10.46 ps     (387 u%)
    tran: time = 1.164 us    (43.1 %), step = 1.084 ps    (40.2 u%)
    tran: time = 1.178 us    (43.6 %), step = 1.252 ps    (46.4 u%)
    tran: time = 1.194 us    (44.2 %), step = 3.75 ps      (139 u%)
    tran: time = 1.211 us    (44.8 %), step = 250 fs      (9.26 u%)
    tran: time = 1.226 us    (45.4 %), step = 963 fs      (35.7 u%)
    tran: time = 1.243 us      (46 %), step = 1.803 ps    (66.8 u%)
    tran: time = 1.259 us    (46.6 %), step = 1.056 ps    (39.1 u%)
    tran: time = 1.275 us    (47.2 %), step = 1.21 ps     (44.8 u%)
    tran: time = 1.283 us    (47.5 %), step = 7.68 ps      (284 u%)
    tran: time = 1.299 us    (48.1 %), step = 1.225 ps    (45.4 u%)
    tran: time = 1.315 us    (48.7 %), step = 1.146 ps    (42.5 u%)
    tran: time = 1.332 us    (49.3 %), step = 1.976 ps    (73.2 u%)
    tran: time = 1.349 us      (50 %), step = 706.1 fs    (26.2 u%)
    tran: time = 1.367 us    (50.6 %), step = 1.482 ps    (54.9 u%)
    tran: time = 1.386 us    (51.3 %), step = 500 fs      (18.5 u%)
    tran: time = 1.402 us    (51.9 %), step = 2.925 ps     (108 u%)
    tran: time = 1.418 us    (52.5 %), step = 14.27 ps     (528 u%)
    tran: time = 1.432 us    (53.1 %), step = 775.3 fs    (28.7 u%)
    tran: time = 1.449 us    (53.6 %), step = 2.279 ps    (84.4 u%)
    tran: time = 1.465 us    (54.2 %), step = 1.595 ps    (59.1 u%)
    tran: time = 1.481 us    (54.8 %), step = 998.1 fs      (37 u%)
    tran: time = 1.497 us    (55.4 %), step = 1.707 ps    (63.2 u%)
    tran: time = 1.513 us      (56 %), step = 1.691 ps    (62.6 u%)
    tran: time = 1.529 us    (56.6 %), step = 2.679 ps    (99.2 u%)
    tran: time = 1.544 us    (57.2 %), step = 1.327 ps    (49.1 u%)
    tran: time = 1.553 us    (57.5 %), step = 12.89 ps     (477 u%)
    tran: time = 1.568 us    (58.1 %), step = 906.3 fs    (33.6 u%)
    tran: time = 1.584 us    (58.7 %), step = 1.463 ps    (54.2 u%)
    tran: time = 1.6 us      (59.3 %), step = 1.098 ps    (40.7 u%)
    tran: time = 1.616 us    (59.9 %), step = 1.076 ps    (39.8 u%)
    tran: time = 1.632 us    (60.4 %), step = 1.626 ps    (60.2 u%)
    tran: time = 1.648 us      (61 %), step = 1.213 ps    (44.9 u%)
    tran: time = 1.664 us    (61.6 %), step = 1.385 ps    (51.3 u%)
    tran: time = 1.68 us     (62.2 %), step = 1.154 ps    (42.7 u%)
    tran: time = 1.688 us    (62.5 %), step = 10.47 ps     (388 u%)
    tran: time = 1.703 us    (63.1 %), step = 1.768 ps    (65.5 u%)
    tran: time = 1.719 us    (63.7 %), step = 717.8 fs    (26.6 u%)
    tran: time = 1.737 us    (64.3 %), step = 1.79 ps     (66.3 u%)
    tran: time = 1.756 us      (65 %), step = 653.5 fs    (24.2 u%)
    tran: time = 1.773 us    (65.7 %), step = 1.042 ps    (38.6 u%)
    tran: time = 1.791 us    (66.3 %), step = 964.6 fs    (35.7 u%)
    tran: time = 1.809 us      (67 %), step = 1.861 ps    (68.9 u%)
    tran: time = 1.823 us    (67.5 %), step = 13.96 ps     (517 u%)
    tran: time = 1.839 us    (68.1 %), step = 2.19 ps     (81.1 u%)
    tran: time = 1.855 us    (68.7 %), step = 93.37 fs    (3.46 u%)
    tran: time = 1.872 us    (69.3 %), step = 1.114 ps    (41.3 u%)
    tran: time = 1.887 us    (69.9 %), step = 1.672 ps    (61.9 u%)
    tran: time = 1.904 us    (70.5 %), step = 1.805 ps    (66.9 u%)
    tran: time = 1.92 us     (71.1 %), step = 2.335 ps    (86.5 u%)
    tran: time = 1.936 us    (71.7 %), step = 1.23 ps     (45.6 u%)
    tran: time = 1.952 us    (72.3 %), step = 1.358 ps    (50.3 u%)
    tran: time = 1.958 us    (72.5 %), step = 14.48 ps     (536 u%)
    tran: time = 1.974 us    (73.1 %), step = 1.045 ps    (38.7 u%)
    tran: time = 1.989 us    (73.7 %), step = 928.6 fs    (34.4 u%)
    tran: time = 2.004 us    (74.2 %), step = 1.424 ps    (52.7 u%)
    tran: time = 2.02 us     (74.8 %), step = 871.7 fs    (32.3 u%)
    tran: time = 2.036 us    (75.4 %), step = 1.17 ps     (43.3 u%)
    tran: time = 2.052 us      (76 %), step = 1.205 ps    (44.6 u%)
    tran: time = 2.069 us    (76.6 %), step = 565 fs      (20.9 u%)
    tran: time = 2.084 us    (77.2 %), step = 986 fs      (36.5 u%)
    tran: time = 2.093 us    (77.5 %), step = 17.99 ps     (666 u%)
    tran: time = 2.109 us    (78.1 %), step = 2.652 ps    (98.2 u%)
    tran: time = 2.124 us    (78.7 %), step = 1.312 ps    (48.6 u%)
    tran: time = 2.141 us    (79.3 %), step = 1.244 ps    (46.1 u%)
    tran: time = 2.157 us    (79.9 %), step = 1.905 ps    (70.5 u%)
    tran: time = 2.172 us    (80.5 %), step = 855.5 fs    (31.7 u%)
    tran: time = 2.189 us    (81.1 %), step = 927.6 fs    (34.4 u%)
    tran: time = 2.204 us    (81.6 %), step = 1.884 ps    (69.8 u%)
    tran: time = 2.219 us    (82.2 %), step = 808.1 fs    (29.9 u%)
    tran: time = 2.228 us    (82.5 %), step = 9.784 ps     (362 u%)
    tran: time = 2.243 us    (83.1 %), step = 1.638 ps    (60.7 u%)
    tran: time = 2.259 us    (83.7 %), step = 1.574 ps    (58.3 u%)
    tran: time = 2.275 us    (84.2 %), step = 1.223 ps    (45.3 u%)
    tran: time = 2.291 us    (84.8 %), step = 2.521 ps    (93.4 u%)
    tran: time = 2.306 us    (85.4 %), step = 3.038 ps     (113 u%)
    tran: time = 2.322 us      (86 %), step = 1.832 ps    (67.9 u%)
    tran: time = 2.338 us    (86.6 %), step = 1.718 ps    (63.6 u%)
    tran: time = 2.352 us    (87.1 %), step = 1.051 ps    (38.9 u%)
    tran: time = 2.363 us    (87.5 %), step = 13.55 ps     (502 u%)
    tran: time = 2.379 us    (88.1 %), step = 930.6 fs    (34.5 u%)
    tran: time = 2.396 us    (88.7 %), step = 1.107 ps      (41 u%)
    tran: time = 2.411 us    (89.3 %), step = 871.1 fs    (32.3 u%)
    tran: time = 2.427 us    (89.9 %), step = 1.065 ps    (39.4 u%)
    tran: time = 2.445 us    (90.5 %), step = 1.394 ps    (51.6 u%)
    tran: time = 2.462 us    (91.2 %), step = 950.3 fs    (35.2 u%)
    tran: time = 2.479 us    (91.8 %), step = 2.399 ps    (88.9 u%)
    tran: time = 2.496 us    (92.5 %), step = 981.1 fs    (36.3 u%)
    tran: time = 2.498 us    (92.5 %), step = 14.97 ps     (554 u%)
    tran: time = 2.516 us    (93.2 %), step = 1.604 ps    (59.4 u%)
    tran: time = 2.532 us    (93.8 %), step = 2.314 ps    (85.7 u%)
    tran: time = 2.548 us    (94.4 %), step = 817 fs      (30.3 u%)
    tran: time = 2.564 us    (94.9 %), step = 1.002 ps    (37.1 u%)
    tran: time = 2.581 us    (95.6 %), step = 1.616 ps    (59.8 u%)
    tran: time = 2.598 us    (96.2 %), step = 1.832 ps    (67.9 u%)
    tran: time = 2.616 us    (96.9 %), step = 885.4 fs    (32.8 u%)
    tran: time = 2.633 us    (97.5 %), step = 12.7 ps      (470 u%)
    tran: time = 2.651 us    (98.2 %), step = 1.136 ps    (42.1 u%)
    tran: time = 2.669 us    (98.8 %), step = 1.346 ps    (49.9 u%)
    tran: time = 2.687 us    (99.5 %), step = 1.052 ps      (39 u%)
Number of accepted tran steps =             1403751

Maximum value achieved for any signal of each quantity: 
V: V(I0.I37.net3) = 1.764 V
I: I(V0:p) = 4.565 mA
If your circuit contains signals of the same quantity that are vastly different in size (such as high voltage circuitry combined with low voltage control circuitry), you should consider specifying global option `bin_relref=yes'.

~~~~~~~~~~~~~~~~~~~~~~~~~~~~~~~~~
Post-Transient Simulation Summary
~~~~~~~~~~~~~~~~~~~~~~~~~~~~~~~~~
   -   To further speed up simulation, consider
          add ++aps on command line
~~~~~~~~~~~~~~~~~~~~~~~~~~~~~~~~~


During simulation, the CPU load for active processors is :
        Spectre  8 (21.1 %)      9 (37.6 %)     10 (19.7 %)     11 (31.2 %)
        Other    0 (9.7 %)       1 (3.9 %)       2 (7.1 %)       3 (13.7 %)
                 4 (9.4 %)       5 (12.7 %)      6 (4.6 %)       7 (4.9 %)
                12 (10.7 %)     13 (6.0 %)      14 (17.0 %)     15 (12.8 %)
Initial condition solution time: CPU = 373.696 ms, elapsed = 371.228 ms.
Intrinsic tran analysis time:    CPU = 1.66745 ks, elapsed = 1.66752 ks.
Total time required for tran analysis `tran': CPU = 1.66783 ks (27m  47.8s), elapsed = 1.6679 ks (27m  47.9s).
Time accumulated: CPU = 1.66942 ks (27m  49.4s), elapsed = 1.66896 ks (27m  49.0s).
Peak resident memory used = 534 Mbytes.


Notice from spectre.
    876660 warnings suppressed.

finalTimeOP: writing operating point information to rawfile.

Opening the PSF file ../psf/finalTimeOP.info ...
modelParameter: writing model parameter values to rawfile.

Opening the PSF file ../psf/modelParameter.info ...
element: writing instance parameter values to rawfile.

Opening the PSF file ../psf/element.info ...
outputParameter: writing output parameter values to rawfile.

Opening the PSF file ../psf/outputParameter.info ...
designParamVals: writing netlist parameters to rawfile.

Opening the PSFASCII file ../psf/designParamVals.info ...
primitives: writing primitives to rawfile.

Opening the PSFASCII file ../psf/primitives.info.primitives ...
subckts: writing subcircuits to rawfile.

Opening the PSFASCII file ../psf/subckts.info.subckts ...

Aggregate audit (1:26:54 AM, Wed Jun 17, 2026):
Time used: CPU = 1.67 ks (27m  49.5s), elapsed = 1.67 ks (27m  49.0s), util. = 100%.
Time spent in licensing: elapsed = 13.6 ms.
Peak memory used = 827 Mbytes.
Simulation started at: 12:59:05 AM, Wed Jun 17, 2026, ended at: 1:26:54 AM, Wed Jun 17, 2026, with elapsed time (wall clock): 1.67 ks (27m  49.0s).
spectre completes with 0 errors, 40 warnings, and 8 notices.
