
Spectre (R) Circuit Simulator
Version 18.1.0.077 64bit -- 1 Aug 2018
Copyright (C) 1989-2018 Cadence Design Systems, Inc. All rights reserved worldwide. Cadence and Spectre are registered trademarks of Cadence Design Systems, Inc. All others are the property of their respective holders.

Includes RSA BSAFE(R) Cryptographic or Security Protocol Software from RSA Security, Inc.

User: IC   Host: IC   HostID: 7F0100   PID: 26196
Memory  available: 150.0815 MB  physical: 16.7718 GB
Linux   : CentOS Linux release 7.7.1908 (Core)
CPU Type: Intel(R) Core(TM) i9-14900HX
All processors running at 2419.2 MHz
        Socket: Processors
        0:       0,  1,  2,  3
        1:       4,  5,  6,  7
        2:       8,  9, 10, 11
        3:      12, 13, 14, 15

System load averages (1min, 5min, 15min) : 32.4 %, 21.8 %, 16.1 %
This is a virtual machine


Simulating `input.scs' on IC at 11:49:55 AM, Thur Jun 18, 2026 (process id: 26196).
Current working directory: /home/IC/simulation/SAR9B_400MV/TB_SUBMOD_ASYCTRL_9CLK_PERF/maestro/results/maestro/Interactive.4/1/TRAN/netlist
Environment variable:
    SPECTRE_DEFAULTS=-E
Command line:
    /opt/eda/cadence/SPECTRE181/tools.lnx86/bin/spectre -64 input.scs  \
        +escchars +log ../psf/spectre.out -format psfxl -raw ../psf  \
        +lqtimeout 900 -maxw 5 -maxn 5 -ahdllibdir  \
        /home/IC/simulation/SAR9B_400MV/TB_SUBMOD_ASYCTRL_9CLK_PERF/maestro/results/maestro/Interactive.4/sharedData/CDS/ahdl/input.ahdlSimDB  \
        +logstatus

Loading /opt/eda/cadence/SPECTRE181/tools.lnx86/cmi/lib/64bit/5.0/libinfineon_sh.so ...
Loading /opt/eda/cadence/SPECTRE181/tools.lnx86/cmi/lib/64bit/5.0/libphilips_o_sh.so ...
Loading /opt/eda/cadence/SPECTRE181/tools.lnx86/cmi/lib/64bit/5.0/libphilips_sh.so ...
Loading /opt/eda/cadence/SPECTRE181/tools.lnx86/cmi/lib/64bit/5.0/libsparam_sh.so ...
Loading /opt/eda/cadence/SPECTRE181/tools.lnx86/cmi/lib/64bit/5.0/libstmodels_sh.so ...
Reading file:  /home/IC/simulation/SAR9B_400MV/TB_SUBMOD_ASYCTRL_9CLK_PERF/maestro/results/maestro/Interactive.4/1/TRAN/netlist/input.scs
Reading file:  /opt/eda/cadence/SPECTRE181/tools.lnx86/spectre/etc/configs/mapsubckt.cfg
Reading file:  /opt/eda/cadence/SPECTRE181/tools.lnx86/spectre/etc/configs/spectre.cfg
Reading file:  /usr/include/stdc-predef.h
Reading file:  /home/IC/Desktop/Project/project_tsmcN28_NEW/project_tsmcN28_NEW/iPDK_CRN28HPC+_v1.0_2p2a_20160226_all/CRN28HPCp/models/spectre/toplevel.scs
Reading file:  /home/IC/Desktop/Project/project_tsmcN28_NEW/project_tsmcN28_NEW/iPDK_CRN28HPC+_v1.0_2p2a_20160226_all/CRN28HPCp/models/spectre/crn28hpcp_lct_1d8_elk_v1d0_2p2_shrink0d9_embedded_usage.scs
Reading file:  /home/IC/Desktop/Project/project_tsmcN28_NEW/project_tsmcN28_NEW/iPDK_CRN28HPC+_v1.0_2p2a_20160226_all/CRN28HPCp/models/spectre/crn28hpcp_lct_1d8_elk_v1d0_2p2.scs
Reading file:  /home/IC/Desktop/Project/project_tsmcN28_NEW/project_tsmcN28_NEW/iPDK_CRN28HPC+_v1.0_2p2a_20160226_all/CRN28HPCp/models/spectre/res_metal.scs
Reading file:  /home/IC/Desktop/Project/project_tsmcN28_NEW/project_tsmcN28_NEW/iPDK_CRN28HPC+_v1.0_2p2a_20160226_all/CRN28HPCp/models/spectre/cln28hpcp_hv_1d8_elk_v0d1_2p1_shrink0d9_embedded_usage.scs
Reading file:  /home/IC/Desktop/Project/project_tsmcN28_NEW/project_tsmcN28_NEW/iPDK_CRN28HPC+_v1.0_2p2a_20160226_all/CRN28HPCp/models/spectre/cln28hpcp_hv_1d8_elk_v0d1_2p1.scs
Time for NDB Parsing: CPU = 3.70168 s, elapsed = 2.04963 s.
Time accumulated: CPU = 3.77254 s, elapsed = 2.04965 s.
Peak resident memory used = 83.4 Mbytes.

Reading link:  /opt/eda/cadence/SPECTRE181/tools.lnx86/spectre/etc/ahdl/discipline.h
Reading file:  /opt/eda/cadence/SPECTRE181/tools.lnx86/spectre/etc/ahdl/disciplines.vams
Reading link:  /opt/eda/cadence/SPECTRE181/tools.lnx86/spectre/etc/ahdl/constants.h
Reading file:  /opt/eda/cadence/SPECTRE181/tools.lnx86/spectre/etc/ahdl/constants.vams

Warning from spectre during hierarchy flattening.
    WARNING (SFE-1131): Duplicate scope option `scalefactor' with scope `TopCircuit'. (using last value specified).
    WARNING (SFE-1131): Duplicate scope option `scalefactor' with scope `TopCircuit'. (using last value specified).
    WARNING (SFE-1131): Duplicate scope option `scalefactor' with scope `TopCircuit'. (using last value specified).
    WARNING (SFE-1131): Duplicate scope option `scalefactor' with scope `TopCircuit'. (using last value specified).

Time for Elaboration: CPU = 710.126 ms, elapsed = 355.073 ms.
Time accumulated: CPU = 4.48353 s, elapsed = 2.40515 s.
Peak resident memory used = 98 Mbytes.


Warning from spectre during hierarchy flattening.
    WARNING (SPECTRE-17101): The value 'psf' specified using the 'checklimitdest' option will no longer be supported in future releases.


Time for EDB Visiting: CPU = 58.065 ms, elapsed = 29.2611 ms.
Time accumulated: CPU = 4.54724 s, elapsed = 2.43723 s.
Peak resident memory used = 99.9 Mbytes.


Notice from spectre during topology check.
    Only one connection to node `0'.


Global user options:
         psfversion = 1.1.0
            vabstol = 1e-06
            iabstol = 1e-12
               temp = 27
               gmin = 1e-12
             rforce = 1
           maxnotes = 5
           maxwarns = 5
             digits = 5
               cols = 80
             pivrel = 0.001
           sensfile = ../psf/sens.output
     checklimitdest = psf
               save = allpub
        scalefactor = 0.9
        scalefactor = 0.9
        scalefactor = 0.9
        scalefactor = 0.9
        scalefactor = 0.9
             reltol = 0.001
               tnom = 27
             scalem = 1
              scale = 1

Scoped user options:

Circuit inventory:
              nodes 125
              bsim4 278
          capacitor 1
            vsource 4

Analysis and control statement inventory:
               info 7
               tran 1

Output statements:
             .probe 0
           .measure 0
               save 1

Time for parsing: CPU = 42.958 ms, elapsed = 22.4211 ms.
Time accumulated: CPU = 4.59098 s, elapsed = 2.46004 s.
Peak resident memory used = 102 Mbytes.

~~~~~~~~~~~~~~~~~~~~~~
Pre-Simulation Summary
~~~~~~~~~~~~~~~~~~~~~~
~~~~~~~~~~~~~~~~~~~~~~

************************************************
Transient Analysis `tran': time = (0 s -> 28 ns)
************************************************

Notice from spectre during IC analysis, during transient analysis `tran'.
    GminDC = 1 pS is large enough to noticeably affect the DC solution.
        dV(XASY.I6.I0.M3:int_s) = 119.226 uV
        Use the `gmin_check' option to eliminate or expand this report.

DC simulation time: CPU = 91.593 ms, elapsed = 45.8541 ms.

Opening the PSFXL file ../psf/tran.tran.tran ...
Important parameter values:
    start = 0 s
    outputstart = 0 s
    stop = 28 ns
    step = 28 ps
    maxstep = 560 ps
    ic = all
    useprevic = no
    skipdc = no
    reltol = 1e-03
    abstol(V) = 1 uV
    abstol(I) = 1 pA
    temp = 27 C
    tnom = 27 C
    tempeffects = all
    errpreset = moderate
    method = traponly
    lteratio = 3.5
    relref = sigglobal
    cmin = 0 F
    gmin = 1 pS


Output and IC/nodeset summary:
                 save   4       (current)
                 save   137     (voltage)

    tran: time = 708.4 ps    (2.53 %), step = 50.33 ps     (180 m%)
    tran: time = 2.414 ns    (8.62 %), step = 417.8 ps     (1.49 %)
    tran: time = 3.636 ns      (13 %), step = 164.3 ps     (587 m%)
    tran: time = 5.128 ns    (18.3 %), step = 372.3 ps     (1.33 %)
    tran: time = 6.321 ns    (22.6 %), step = 184.4 ps     (659 m%)
    tran: time = 8 ns        (28.6 %), step = 373.5 ps     (1.33 %)
    tran: time = 9.121 ns    (32.6 %), step = 22.07 ps    (78.8 m%)
    tran: time = 10.5 ns     (37.5 %), step = 383.4 ps     (1.37 %)
    tran: time = 11.9 ns     (42.5 %), step = 161.6 ps     (577 m%)
    tran: time = 13.35 ns    (47.7 %), step = 90.56 ps     (323 m%)
    tran: time = 14.72 ns    (52.6 %), step = 321 ps       (1.15 %)
    tran: time = 16.14 ns    (57.6 %), step = 164.3 ps     (587 m%)
    tran: time = 17.61 ns    (62.9 %), step = 389.6 ps     (1.39 %)
    tran: time = 19.01 ns    (67.9 %), step = 184.4 ps     (658 m%)
    tran: time = 20.5 ns     (73.2 %), step = 390 ps       (1.39 %)
    tran: time = 21.86 ns    (78.1 %), step = 163.2 ps     (583 m%)

Warning from spectre at time = 23.0041 ns during transient analysis `tran'.
    WARNING (CMI-2751): XASY.I10.M7: Vds(=-1.00633 V) has exceeded vds_max(=990 mV).
Warning from spectre at time = 23.0045 ns during transient analysis `tran'.
    WARNING (CMI-2751): XASY.I10.M7: Vds(=-1.01959 V) has exceeded vds_max(=990 mV).
Warning from spectre at time = 23.005 ns during transient analysis `tran'.
    WARNING (CMI-2751): XASY.I10.M7: Vds(=-1.03217 V) has exceeded vds_max(=990 mV).
Warning from spectre at time = 23.0051 ns during transient analysis `tran'.
    WARNING (CMI-2751): XASY.I10.M7: Vds(=-1.03319 V) has exceeded vds_max(=990 mV).
Warning from spectre at time = 23.0052 ns during transient analysis `tran'.
    WARNING (CMI-2751): XASY.I10.M7: Vds(=-1.03514 V) has exceeded vds_max(=990 mV).
        Further occurrences of this warning will be suppressed.

    tran: time = 23.14 ns    (82.6 %), step = 41.78 ps     (149 m%)
    tran: time = 24.76 ns    (88.4 %), step = 364.3 ps      (1.3 %)

Notice from spectre at time = 25.5 ns during transient analysis `tran'.
    Found trapezoidal ringing on node VDD_SRC:p.

    tran: time = 25.99 ns    (92.8 %), step = 156.4 ps     (559 m%)
    tran: time = 27.63 ns    (98.7 %), step = 367.5 ps     (1.31 %)

Notice from spectre at time = 28 ns during transient analysis `tran'.
    Found trapezoidal ringing on node VDD_SRC:p.

Number of accepted tran steps =             1357

Notice from spectre during transient analysis `tran'.
    Trapezoidal ringing is detected during tran analysis.
        Please use method=trap for better results and performance.


Maximum value achieved for any signal of each quantity:
V: V(XASY.I10.M6:int_d) = 1.047 V
I: I(VDD_SRC:p) = 1.738 mA
If your circuit contains signals of the same quantity that are vastly different in size (such as high voltage circuitry combined with low voltage control circuitry), you should consider specifying global option `bin_relref=yes'.

~~~~~~~~~~~~~~~~~~~~~~~~~~~~~~~~~
Post-Transient Simulation Summary
~~~~~~~~~~~~~~~~~~~~~~~~~~~~~~~~~
   -   To further speed up simulation, consider
          add ++aps on command line
~~~~~~~~~~~~~~~~~~~~~~~~~~~~~~~~~


During simulation, the CPU load for active processors is :
        Spectre  0 (29.5 %)      1 (49.3 %)      2 (22.2 %)      3 (61.3 %)
                 4 (94.6 %)      5 (61.4 %)      6 (12.2 %)      7 (25.9 %)
                 8 (31.5 %)      9 (48.5 %)     10 (57.8 %)     11 (33.3 %)
                12 (30.0 %)     13 (68.8 %)     14 (30.6 %)     15 (32.6 %)
        Other
Initial condition solution time: CPU = 91.989 ms, elapsed = 46.056 ms.
Intrinsic tran analysis time:    CPU = 6.97968 s, elapsed = 6.84183 s.
Total time required for tran analysis `tran': CPU = 7.08742 s, elapsed = 6.89591 s.
Time accumulated: CPU = 11.7153 s, elapsed = 9.39342 s.
Peak resident memory used = 111 Mbytes.


Notice from spectre.
    62 warnings suppressed.

finalTimeOP: writing operating point information to rawfile.

Opening the PSF file ../psf/finalTimeOP.info ...
modelParameter: writing model parameter values to rawfile.

Opening the PSF file ../psf/modelParameter.info ...
element: writing instance parameter values to rawfile.

Opening the PSF file ../psf/element.info ...
outputParameter: writing output parameter values to rawfile.

Opening the PSF file ../psf/outputParameter.info ...
designParamVals: writing netlist parameters to rawfile.

Opening the PSFASCII file ../psf/designParamVals.info ...
primitives: writing primitives to rawfile.

Opening the PSFASCII file ../psf/primitives.info.primitives ...
subckts: writing subcircuits to rawfile.

Opening the PSFASCII file ../psf/subckts.info.subckts ...

Aggregate audit (11:50:04 AM, Thur Jun 18, 2026):
Time used: CPU = 12 s, elapsed = 12 s, util. = 100%.
Time spent in licensing: elapsed = 73.2 ms.
Peak memory used = 112 Mbytes.
Simulation started at: 11:49:55 AM, Thur Jun 18, 2026, ended at: 11:50:04 AM, Thur Jun 18, 2026, with elapsed time (wall clock): 12 s.
spectre completes with 0 errors, 10 warnings, and 6 notices.
