
Spectre (R) Circuit Simulator
Version 18.1.0.077 64bit -- 1 Aug 2018
Copyright (C) 1989-2018 Cadence Design Systems, Inc. All rights reserved worldwide. Cadence and Spectre are registered trademarks of Cadence Design Systems, Inc. All others are the property of their respective holders.

Includes RSA BSAFE(R) Cryptographic or Security Protocol Software from RSA Security, Inc.

User: IC   Host: IC   HostID: 7F0100   PID: 16331
Memory  available: 261.4149 MB  physical: 16.7718 GB
Linux   : CentOS Linux release 7.7.1908 (Core)
CPU Type: Intel(R) Core(TM) i9-14900HX
All processors running at 2419.2 MHz
        Socket: Processors
        0:       0,  1,  2,  3
        1:       4,  5,  6,  7
        2:       8,  9, 10, 11
        3:      12, 13, 14, 15

System load averages (1min, 5min, 15min) : 18.4 %, 13.9 %, 12.2 %
This is a virtual machine


Simulating `input.scs' on IC at 11:39:29 AM, Thur Jun 18, 2026 (process id: 16331).
Current working directory: /home/IC/simulation/SAR9B_400MV/TB_SUBMOD_CLK_NOOVERLAP_PERF/maestro/results/maestro/Interactive.3/1/TRAN/netlist
Environment variable:
    SPECTRE_DEFAULTS=-E
Command line:
    /opt/eda/cadence/SPECTRE181/tools.lnx86/bin/spectre -64 input.scs  \
        +escchars +log ../psf/spectre.out -format psfxl -raw ../psf  \
        +lqtimeout 900 -maxw 5 -maxn 5 -ahdllibdir  \
        /home/IC/simulation/SAR9B_400MV/TB_SUBMOD_CLK_NOOVERLAP_PERF/maestro/results/maestro/Interactive.3/sharedData/CDS/ahdl/input.ahdlSimDB  \
        +logstatus

Loading /opt/eda/cadence/SPECTRE181/tools.lnx86/cmi/lib/64bit/5.0/libinfineon_sh.so ...
Loading /opt/eda/cadence/SPECTRE181/tools.lnx86/cmi/lib/64bit/5.0/libphilips_o_sh.so ...
Loading /opt/eda/cadence/SPECTRE181/tools.lnx86/cmi/lib/64bit/5.0/libphilips_sh.so ...
Loading /opt/eda/cadence/SPECTRE181/tools.lnx86/cmi/lib/64bit/5.0/libsparam_sh.so ...
Loading /opt/eda/cadence/SPECTRE181/tools.lnx86/cmi/lib/64bit/5.0/libstmodels_sh.so ...
Reading file:  /home/IC/simulation/SAR9B_400MV/TB_SUBMOD_CLK_NOOVERLAP_PERF/maestro/results/maestro/Interactive.3/1/TRAN/netlist/input.scs
Reading file:  /opt/eda/cadence/SPECTRE181/tools.lnx86/spectre/etc/configs/mapsubckt.cfg
Reading file:  /opt/eda/cadence/SPECTRE181/tools.lnx86/spectre/etc/configs/spectre.cfg
Reading file:  /usr/include/stdc-predef.h
Reading file:  /home/IC/Desktop/Project/project_tsmcN28_NEW/project_tsmcN28_NEW/iPDK_CRN28HPC+_v1.0_2p2a_20160226_all/CRN28HPCp/models/spectre/toplevel.scs
Reading file:  /home/IC/Desktop/Project/project_tsmcN28_NEW/project_tsmcN28_NEW/iPDK_CRN28HPC+_v1.0_2p2a_20160226_all/CRN28HPCp/models/spectre/crn28hpcp_lct_1d8_elk_v1d0_2p2_shrink0d9_embedded_usage.scs
Reading file:  /home/IC/Desktop/Project/project_tsmcN28_NEW/project_tsmcN28_NEW/iPDK_CRN28HPC+_v1.0_2p2a_20160226_all/CRN28HPCp/models/spectre/crn28hpcp_lct_1d8_elk_v1d0_2p2.scs
Reading file:  /home/IC/Desktop/Project/project_tsmcN28_NEW/project_tsmcN28_NEW/iPDK_CRN28HPC+_v1.0_2p2a_20160226_all/CRN28HPCp/models/spectre/res_metal.scs
Reading file:  /home/IC/Desktop/Project/project_tsmcN28_NEW/project_tsmcN28_NEW/iPDK_CRN28HPC+_v1.0_2p2a_20160226_all/CRN28HPCp/models/spectre/cln28hpcp_hv_1d8_elk_v0d1_2p1_shrink0d9_embedded_usage.scs
Reading file:  /home/IC/Desktop/Project/project_tsmcN28_NEW/project_tsmcN28_NEW/iPDK_CRN28HPC+_v1.0_2p2a_20160226_all/CRN28HPCp/models/spectre/cln28hpcp_hv_1d8_elk_v0d1_2p1.scs
Time for NDB Parsing: CPU = 3.61259 s, elapsed = 1.99747 s.
Time accumulated: CPU = 3.67668 s, elapsed = 1.99749 s.
Peak resident memory used = 83.3 Mbytes.

Reading link:  /opt/eda/cadence/SPECTRE181/tools.lnx86/spectre/etc/ahdl/discipline.h
Reading file:  /opt/eda/cadence/SPECTRE181/tools.lnx86/spectre/etc/ahdl/disciplines.vams
Reading link:  /opt/eda/cadence/SPECTRE181/tools.lnx86/spectre/etc/ahdl/constants.h
Reading file:  /opt/eda/cadence/SPECTRE181/tools.lnx86/spectre/etc/ahdl/constants.vams

Warning from spectre during hierarchy flattening.
    WARNING (SFE-1131): Duplicate scope option `scalefactor' with scope `TopCircuit'. (using last value specified).
    WARNING (SFE-1131): Duplicate scope option `scalefactor' with scope `TopCircuit'. (using last value specified).
    WARNING (SFE-1131): Duplicate scope option `scalefactor' with scope `TopCircuit'. (using last value specified).
    WARNING (SFE-1131): Duplicate scope option `scalefactor' with scope `TopCircuit'. (using last value specified).

Time for Elaboration: CPU = 504.422 ms, elapsed = 252.215 ms.
Time accumulated: CPU = 4.18216 s, elapsed = 2.25023 s.
Peak resident memory used = 97.2 Mbytes.


Warning from spectre during hierarchy flattening.
    WARNING (SPECTRE-17101): The value 'psf' specified using the 'checklimitdest' option will no longer be supported in future releases.


Time for EDB Visiting: CPU = 13.026 ms, elapsed = 6.51503 ms.
Time accumulated: CPU = 4.20093 s, elapsed = 2.25961 s.
Peak resident memory used = 98.1 Mbytes.


Notice from spectre during topology check.
    Only one connection to node `0'.


Global user options:
         psfversion = 1.1.0
            vabstol = 1e-06
            iabstol = 1e-12
               temp = 27
               gmin = 1e-12
             rforce = 1
           maxnotes = 5
           maxwarns = 5
             digits = 5
               cols = 80
             pivrel = 0.001
           sensfile = ../psf/sens.output
     checklimitdest = psf
               save = allpub
        scalefactor = 0.9
        scalefactor = 0.9
        scalefactor = 0.9
        scalefactor = 0.9
        scalefactor = 0.9
             reltol = 0.001
               tnom = 27
             scalem = 1
              scale = 1

Scoped user options:

Circuit inventory:
              nodes 21
              bsim4 36
          capacitor 2
            vsource 3

Analysis and control statement inventory:
               info 7
               tran 1

Output statements:
             .probe 0
           .measure 0
               save 1

Time for parsing: CPU = 28.108 ms, elapsed = 14.7941 ms.
Time accumulated: CPU = 4.23271 s, elapsed = 2.27624 s.
Peak resident memory used = 99.6 Mbytes.

~~~~~~~~~~~~~~~~~~~~~~
Pre-Simulation Summary
~~~~~~~~~~~~~~~~~~~~~~
~~~~~~~~~~~~~~~~~~~~~~

************************************************
Transient Analysis `tran': time = (0 s -> 12 ns)
************************************************

Notice from spectre during IC analysis, during transient analysis `tran'.
    GminDC = 1 pS is large enough to noticeably affect the DC solution.
        dV(XNO.I3.M3:int_s) = 119.154 uV
        Use the `gmin_check' option to eliminate or expand this report.

DC simulation time: CPU = 12.92 ms, elapsed = 6.46305 ms.

Opening the PSFXL file ../psf/tran.tran.tran ...
Important parameter values:
    start = 0 s
    outputstart = 0 s
    stop = 12 ns
    step = 12 ps
    maxstep = 240 ps
    ic = all
    useprevic = no
    skipdc = no
    reltol = 1e-03
    abstol(V) = 1 uV
    abstol(I) = 1 pA
    temp = 27 C
    tnom = 27 C
    tempeffects = all
    errpreset = moderate
    method = traponly
    lteratio = 3.5
    relref = sigglobal
    cmin = 0 F
    gmin = 1 pS


Output and IC/nodeset summary:
                 save   3       (current)
                 save   24      (voltage)

    tran: time = 340 ps      (2.83 %), step = 160 ps       (1.33 %)

Notice from spectre at time = 1.04688 ns during transient analysis `tran'.
    Found trapezoidal ringing on node VDD_SRC:p.

    tran: time = 1.047 ns    (8.72 %), step = 203.1 ps     (1.69 %)

Notice from spectre at time = 1.28688 ns during transient analysis `tran'.
    Found trapezoidal ringing on node VDD_SRC:p.
Notice from spectre at time = 1.52688 ns during transient analysis `tran'.
    Found trapezoidal ringing on node VDD_SRC:p.

    tran: time = 1.527 ns    (12.7 %), step = 240 ps          (2 %)

Notice from spectre at time = 1.76688 ns during transient analysis `tran'.
    Found trapezoidal ringing on node VDD_SRC:p.
Notice from spectre at time = 2.00688 ns during transient analysis `tran'.
    Found trapezoidal ringing on node VDD_SRC:p.
        Further occurrences of this notice will be suppressed.

    tran: time = 2.247 ns    (18.7 %), step = 240 ps          (2 %)

Warning from spectre at time = 2.51942 ns during transient analysis `tran'.
    WARNING (CMI-2754): XNO.I5.M5: Vgd(=996.932 mV) has exceeded vgd_max(=990 mV).
    WARNING (CMI-2751): XNO.I5.M0: Vds(=1.00501 V) has exceeded vds_max(=990 mV).
    WARNING (CMI-2755): XNO.I5.M0: Vbd(=-1.00501 V) has exceeded vbd_max(=990 mV).
    WARNING (CMI-2752): XNO.I5.M4: Vgs(=1.00501 V) has exceeded vgs_max(=990 mV).
    WARNING (CMI-2753): XNO.I5.M4: Vgb(=1.00501 V) has exceeded vgb_max(=990 mV).
    WARNING (CMI-2754): XNO.I5.M4: Vgd(=996.932 mV) has exceeded vgd_max(=990 mV).
Warning from spectre at time = 2.52023 ns during transient analysis `tran'.
    WARNING (CMI-2754): XNO.I5.M5: Vgd(=1.00632 V) has exceeded vgd_max(=990 mV).
    WARNING (CMI-2751): XNO.I5.M0: Vds(=1.01406 V) has exceeded vds_max(=990 mV).
    WARNING (CMI-2755): XNO.I5.M0: Vbd(=-1.01406 V) has exceeded vbd_max(=990 mV).
    WARNING (CMI-2752): XNO.I5.M4: Vgs(=1.01406 V) has exceeded vgs_max(=990 mV).
    WARNING (CMI-2753): XNO.I5.M4: Vgb(=1.01406 V) has exceeded vgb_max(=990 mV).
    WARNING (CMI-2754): XNO.I5.M4: Vgd(=1.00632 V) has exceeded vgd_max(=990 mV).
Warning from spectre at time = 2.52107 ns during transient analysis `tran'.
    WARNING (CMI-2754): XNO.I5.M5: Vgd(=991.55 mV) has exceeded vgd_max(=990 mV).
        Further occurrences of this warning will be suppressed.
    WARNING (CMI-2751): XNO.I5.M0: Vds(=993.414 mV) has exceeded vds_max(=990 mV).
    WARNING (CMI-2755): XNO.I5.M0: Vbd(=-993.414 mV) has exceeded vbd_max(=990 mV).
    WARNING (CMI-2752): XNO.I5.M4: Vgs(=993.414 mV) has exceeded vgs_max(=990 mV).
    WARNING (CMI-2753): XNO.I5.M4: Vgb(=993.414 mV) has exceeded vgb_max(=990 mV).

    tran: time = 2.749 ns    (22.9 %), step = 66.78 ps     (556 m%)
    tran: time = 3.363 ns      (28 %), step = 240 ps          (2 %)
    tran: time = 4.083 ns      (34 %), step = 240 ps          (2 %)
    tran: time = 4.563 ns      (38 %), step = 240 ps          (2 %)
    tran: time = 5.283 ns      (44 %), step = 240 ps          (2 %)
    tran: time = 5.732 ns    (47.8 %), step = 53.3 ps      (444 m%)
    tran: time = 6.48 ns       (54 %), step = 240 ps          (2 %)
    tran: time = 6.96 ns       (58 %), step = 240 ps          (2 %)
    tran: time = 7.505 ns    (62.5 %), step = 152.3 ps     (1.27 %)

Warning from spectre at time = 7.5195 ns during transient analysis `tran'.
    WARNING (CMI-2751): XNO.I5.M0: Vds(=1.00671 V) has exceeded vds_max(=990 mV).
    WARNING (CMI-2755): XNO.I5.M0: Vbd(=-1.00671 V) has exceeded vbd_max(=990 mV).
    WARNING (CMI-2752): XNO.I5.M4: Vgs(=1.00671 V) has exceeded vgs_max(=990 mV).
    WARNING (CMI-2753): XNO.I5.M4: Vgb(=1.00671 V) has exceeded vgb_max(=990 mV).
Warning from spectre at time = 7.52033 ns during transient analysis `tran'.
    WARNING (CMI-2751): XNO.I5.M0: Vds(=1.01333 V) has exceeded vds_max(=990 mV).
        Further occurrences of this warning will be suppressed.
    WARNING (CMI-2755): XNO.I5.M0: Vbd(=-1.01333 V) has exceeded vbd_max(=990 mV).
        Further occurrences of this warning will be suppressed.
    WARNING (CMI-2752): XNO.I5.M4: Vgs(=1.01333 V) has exceeded vgs_max(=990 mV).
        Further occurrences of this warning will be suppressed.
    WARNING (CMI-2753): XNO.I5.M4: Vgb(=1.01333 V) has exceeded vgb_max(=990 mV).
        Further occurrences of this warning will be suppressed.

    tran: time = 8.217 ns    (68.5 %), step = 240 ps          (2 %)
    tran: time = 8.937 ns    (74.5 %), step = 240 ps          (2 %)
    tran: time = 9.417 ns    (78.5 %), step = 240 ps          (2 %)
    tran: time = 10.14 ns    (84.5 %), step = 240 ps          (2 %)
    tran: time = 10.5 ns     (87.5 %), step = 181.5 ps     (1.51 %)
    tran: time = 11.24 ns    (93.7 %), step = 240 ps          (2 %)
    tran: time = 11.72 ns    (97.7 %), step = 240 ps          (2 %)
Number of accepted tran steps =             531

Notice from spectre during transient analysis `tran'.
    Trapezoidal ringing is detected during tran analysis.
        Please use method=trap for better results and performance.


Maximum value achieved for any signal of each quantity:
V: V(XNO.I5.M1:int_d) = 1.014 V
I: I(VDD_SRC:p) = 683.4 uA
If your circuit contains signals of the same quantity that are vastly different in size (such as high voltage circuitry combined with low voltage control circuitry), you should consider specifying global option `bin_relref=yes'.

~~~~~~~~~~~~~~~~~~~~~~~~~~~~~~~~~
Post-Transient Simulation Summary
~~~~~~~~~~~~~~~~~~~~~~~~~~~~~~~~~
   -   To further speed up simulation, consider
          add ++aps on command line
~~~~~~~~~~~~~~~~~~~~~~~~~~~~~~~~~


During simulation, the CPU load for active processors is :
        Spectre  0 (17.4 %)      1 (13.0 %)      2 (88.6 %)      3 (2.0 %)
                 4 (25.2 %)      5 (10.6 %)      6 (7.5 %)       7 (7.1 %)
                 8 (80.4 %)      9 (7.5 %)      10 (22.3 %)     11 (2.0 %)
                12 (42.2 %)     13 (36.1 %)     14 (3.9 %)      15 (15.4 %)
        Other
Initial condition solution time: CPU = 13.321 ms, elapsed = 6.66714 ms.
Intrinsic tran analysis time:    CPU = 682.812 ms, elapsed = 417.831 ms.
Total time required for tran analysis `tran': CPU = 705.816 ms, elapsed = 429.359 ms.
Time accumulated: CPU = 4.95845 s, elapsed = 2.72539 s.
Peak resident memory used = 104 Mbytes.


Notice from spectre.
    42 notices suppressed.
    9 warnings suppressed.

finalTimeOP: writing operating point information to rawfile.

Opening the PSF file ../psf/finalTimeOP.info ...
modelParameter: writing model parameter values to rawfile.

Opening the PSF file ../psf/modelParameter.info ...
element: writing instance parameter values to rawfile.

Opening the PSF file ../psf/element.info ...
outputParameter: writing output parameter values to rawfile.

Opening the PSF file ../psf/outputParameter.info ...
designParamVals: writing netlist parameters to rawfile.

Opening the PSFASCII file ../psf/designParamVals.info ...
primitives: writing primitives to rawfile.

Opening the PSFASCII file ../psf/primitives.info.primitives ...
subckts: writing subcircuits to rawfile.

Opening the PSFASCII file ../psf/subckts.info.subckts ...

Aggregate audit (11:39:32 AM, Thur Jun 18, 2026):
Time used: CPU = 5.22 s, elapsed = 5.22 s, util. = 100%.
Time spent in licensing: elapsed = 72.6 ms.
Peak memory used = 107 Mbytes.
Simulation started at: 11:39:29 AM, Thur Jun 18, 2026, ended at: 11:39:32 AM, Thur Jun 18, 2026, with elapsed time (wall clock): 5.22 s.
spectre completes with 0 errors, 30 warnings, and 10 notices.
