
Spectre (R) Circuit Simulator
Version 18.1.0.077 64bit -- 1 Aug 2018
Copyright (C) 1989-2018 Cadence Design Systems, Inc. All rights reserved worldwide. Cadence and Spectre are registered trademarks of Cadence Design Systems, Inc. All others are the property of their respective holders.

Includes RSA BSAFE(R) Cryptographic or Security Protocol Software from RSA Security, Inc.

User: IC   Host: IC   HostID: 7F0100   PID: 9544
Memory  available: 170.7909 MB  physical: 16.7718 GB
Linux   : CentOS Linux release 7.7.1908 (Core)
CPU Type: Intel(R) Core(TM) i9-14900HX
All processors running at 2419.2 MHz
        Socket: Processors
        0:       0,  1,  2,  3
        1:       4,  5,  6,  7
        2:       8,  9, 10, 11
        3:      12, 13, 14, 15

System load averages (1min, 5min, 15min) : 15.7 %, 14.9 %, 11.8 %
This is a virtual machine


Simulating `input.scs' on IC at 11:26:18 AM, Thur Jun 18, 2026 (process id: 9544).
Current working directory: /home/IC/simulation/SAR9B_400MV/TB_SUBMOD_COMPARATOR_PERF/maestro/results/maestro/Interactive.6/1/TRAN/netlist
Environment variable:
    SPECTRE_DEFAULTS=-E
Command line:
    /opt/eda/cadence/SPECTRE181/tools.lnx86/bin/spectre -64 input.scs  \
        +escchars +log ../psf/spectre.out -format psfxl -raw ../psf  \
        +lqtimeout 900 -maxw 5 -maxn 5 -ahdllibdir  \
        /home/IC/simulation/SAR9B_400MV/TB_SUBMOD_COMPARATOR_PERF/maestro/results/maestro/Interactive.6/sharedData/CDS/ahdl/input.ahdlSimDB  \
        +logstatus

Loading /opt/eda/cadence/SPECTRE181/tools.lnx86/cmi/lib/64bit/5.0/libinfineon_sh.so ...
Loading /opt/eda/cadence/SPECTRE181/tools.lnx86/cmi/lib/64bit/5.0/libphilips_o_sh.so ...
Loading /opt/eda/cadence/SPECTRE181/tools.lnx86/cmi/lib/64bit/5.0/libphilips_sh.so ...
Loading /opt/eda/cadence/SPECTRE181/tools.lnx86/cmi/lib/64bit/5.0/libsparam_sh.so ...
Loading /opt/eda/cadence/SPECTRE181/tools.lnx86/cmi/lib/64bit/5.0/libstmodels_sh.so ...
Reading file:  /home/IC/simulation/SAR9B_400MV/TB_SUBMOD_COMPARATOR_PERF/maestro/results/maestro/Interactive.6/1/TRAN/netlist/input.scs
Reading file:  /opt/eda/cadence/SPECTRE181/tools.lnx86/spectre/etc/configs/mapsubckt.cfg
Reading file:  /opt/eda/cadence/SPECTRE181/tools.lnx86/spectre/etc/configs/spectre.cfg
Reading file:  /usr/include/stdc-predef.h
Reading file:  /home/IC/Desktop/Project/project_tsmcN28_NEW/project_tsmcN28_NEW/iPDK_CRN28HPC+_v1.0_2p2a_20160226_all/CRN28HPCp/models/spectre/toplevel.scs
Reading file:  /home/IC/Desktop/Project/project_tsmcN28_NEW/project_tsmcN28_NEW/iPDK_CRN28HPC+_v1.0_2p2a_20160226_all/CRN28HPCp/models/spectre/crn28hpcp_lct_1d8_elk_v1d0_2p2_shrink0d9_embedded_usage.scs
Reading file:  /home/IC/Desktop/Project/project_tsmcN28_NEW/project_tsmcN28_NEW/iPDK_CRN28HPC+_v1.0_2p2a_20160226_all/CRN28HPCp/models/spectre/crn28hpcp_lct_1d8_elk_v1d0_2p2.scs
Reading file:  /home/IC/Desktop/Project/project_tsmcN28_NEW/project_tsmcN28_NEW/iPDK_CRN28HPC+_v1.0_2p2a_20160226_all/CRN28HPCp/models/spectre/res_metal.scs
Reading file:  /home/IC/Desktop/Project/project_tsmcN28_NEW/project_tsmcN28_NEW/iPDK_CRN28HPC+_v1.0_2p2a_20160226_all/CRN28HPCp/models/spectre/cln28hpcp_hv_1d8_elk_v0d1_2p1_shrink0d9_embedded_usage.scs
Reading file:  /home/IC/Desktop/Project/project_tsmcN28_NEW/project_tsmcN28_NEW/iPDK_CRN28HPC+_v1.0_2p2a_20160226_all/CRN28HPCp/models/spectre/cln28hpcp_hv_1d8_elk_v0d1_2p1.scs
Time for NDB Parsing: CPU = 3.42232 s, elapsed = 1.89184 s.
Time accumulated: CPU = 3.4809 s, elapsed = 1.89186 s.
Peak resident memory used = 83.8 Mbytes.

Reading link:  /opt/eda/cadence/SPECTRE181/tools.lnx86/spectre/etc/ahdl/discipline.h
Reading file:  /opt/eda/cadence/SPECTRE181/tools.lnx86/spectre/etc/ahdl/disciplines.vams
Reading link:  /opt/eda/cadence/SPECTRE181/tools.lnx86/spectre/etc/ahdl/constants.h
Reading file:  /opt/eda/cadence/SPECTRE181/tools.lnx86/spectre/etc/ahdl/constants.vams

Warning from spectre during hierarchy flattening.
    WARNING (SFE-1131): Duplicate scope option `scalefactor' with scope `TopCircuit'. (using last value specified).
    WARNING (SFE-1131): Duplicate scope option `scalefactor' with scope `TopCircuit'. (using last value specified).
    WARNING (SFE-1131): Duplicate scope option `scalefactor' with scope `TopCircuit'. (using last value specified).
    WARNING (SFE-1131): Duplicate scope option `scalefactor' with scope `TopCircuit'. (using last value specified).

Time for Elaboration: CPU = 291.874 ms, elapsed = 145.939 ms.
Time accumulated: CPU = 3.77404 s, elapsed = 2.03843 s.
Peak resident memory used = 95.7 Mbytes.


Warning from spectre during hierarchy flattening.
    WARNING (SPECTRE-17101): The value 'psf' specified using the 'checklimitdest' option will no longer be supported in future releases.


Time for EDB Visiting: CPU = 9.325 ms, elapsed = 4.66299 ms.
Time accumulated: CPU = 3.78698 s, elapsed = 2.0449 s.
Peak resident memory used = 96.5 Mbytes.


Notice from spectre during topology check.
    Only one connection to node `0'.


Global user options:
         psfversion = 1.1.0
            vabstol = 1e-06
            iabstol = 1e-12
               temp = 27
               gmin = 1e-12
             rforce = 1
           maxnotes = 5
           maxwarns = 5
             digits = 5
               cols = 80
             pivrel = 0.001
           sensfile = ../psf/sens.output
     checklimitdest = psf
               save = allpub
        scalefactor = 0.9
        scalefactor = 0.9
        scalefactor = 0.9
        scalefactor = 0.9
        scalefactor = 0.9
             reltol = 0.001
               tnom = 27
             scalem = 1
              scale = 1

Scoped user options:

Circuit inventory:
              nodes 14
              bsim4 17
          capacitor 2
            vsource 5

Analysis and control statement inventory:
               info 7
               tran 1

Output statements:
             .probe 0
           .measure 0
               save 1

Time for parsing: CPU = 29.052 ms, elapsed = 15.3382 ms.
Time accumulated: CPU = 3.8167 s, elapsed = 2.06057 s.
Peak resident memory used = 97.9 Mbytes.

~~~~~~~~~~~~~~~~~~~~~~
Pre-Simulation Summary
~~~~~~~~~~~~~~~~~~~~~~
~~~~~~~~~~~~~~~~~~~~~~

***********************************************
Transient Analysis `tran': time = (0 s -> 8 ns)
***********************************************

Notice from spectre during IC analysis, during transient analysis `tran'.
    Bad pivoting is found during DC analysis. Option dc_pivot_check=yes is recommended for possible improvement of convergence.

DC simulation time: CPU = 6.919 ms, elapsed = 3.46184 ms.

Opening the PSFXL file ../psf/tran.tran.tran ...
Important parameter values:
    start = 0 s
    outputstart = 0 s
    stop = 8 ns
    step = 8 ps
    maxstep = 160 ps
    ic = all
    useprevic = no
    skipdc = no
    reltol = 1e-03
    abstol(V) = 1 uV
    abstol(I) = 1 pA
    temp = 27 C
    tnom = 27 C
    tempeffects = all
    errpreset = moderate
    method = traponly
    lteratio = 3.5
    relref = sigglobal
    cmin = 0 F
    gmin = 1 pS


Output and IC/nodeset summary:
                 save   5       (current)
                 save   19      (voltage)

    tran: time = 248 ps       (3.1 %), step = 128 ps        (1.6 %)
    tran: time = 728 ps       (9.1 %), step = 160 ps          (2 %)
    tran: time = 1 ns        (12.5 %), step = 112 ps        (1.4 %)
    tran: time = 1.471 ns    (18.4 %), step = 120 ps        (1.5 %)
    tran: time = 1.951 ns    (24.4 %), step = 160 ps          (2 %)
    tran: time = 2.271 ns    (28.4 %), step = 160 ps          (2 %)

Notice from spectre at time = 2.75118 ns during transient analysis `tran'.
    Found trapezoidal ringing on node VDD_SRC:p.

    tran: time = 2.751 ns    (34.4 %), step = 160 ps          (2 %)

Notice from spectre at time = 2.87809 ns during transient analysis `tran'.
    Found trapezoidal ringing on node VDD_SRC:p.
Notice from spectre at time = 3.005 ns during transient analysis `tran'.
    Found trapezoidal ringing on node VDD_SRC:p.

    tran: time = 3.005 ns    (37.6 %), step = 126.9 ps     (1.59 %)
    tran: time = 3.4 ns      (42.5 %), step = 41.32 ps     (517 m%)
    tran: time = 3.868 ns    (48.3 %), step = 160 ps          (2 %)
    tran: time = 4.348 ns    (54.3 %), step = 160 ps          (2 %)

Notice from spectre at time = 4.66775 ns during transient analysis `tran'.
    Found trapezoidal ringing on node VCLK:p.

    tran: time = 4.668 ns    (58.3 %), step = 160 ps          (2 %)

Notice from spectre at time = 4.82775 ns during transient analysis `tran'.
    Found trapezoidal ringing on node VCLK:p.
        Further occurrences of this notice will be suppressed.

    tran: time = 5.148 ns    (64.3 %), step = 160 ps          (2 %)
    tran: time = 5.468 ns    (68.3 %), step = 160 ps          (2 %)
    tran: time = 5.894 ns    (73.7 %), step = 106.1 ps     (1.33 %)
    tran: time = 6.206 ns    (77.6 %), step = 50.49 ps     (631 m%)
    tran: time = 6.653 ns    (83.2 %), step = 160 ps          (2 %)
    tran: time = 7.133 ns    (89.2 %), step = 160 ps          (2 %)
    tran: time = 7.453 ns    (93.2 %), step = 160 ps          (2 %)
    tran: time = 7.887 ns    (98.6 %), step = 113.5 ps     (1.42 %)
Number of accepted tran steps =             184

Notice from spectre during transient analysis `tran'.
    Trapezoidal ringing is detected during tran analysis.
        Please use method=trap for better results and performance.


Maximum value achieved for any signal of each quantity:
V: V(XCOMP.M0:int_d) = 859.8 mV
I: I(VDD_SRC:p) = 723.8 uA
If your circuit contains signals of the same quantity that are vastly different in size (such as high voltage circuitry combined with low voltage control circuitry), you should consider specifying global option `bin_relref=yes'.

~~~~~~~~~~~~~~~~~~~~~~~~~~~~~~~~~
Post-Transient Simulation Summary
~~~~~~~~~~~~~~~~~~~~~~~~~~~~~~~~~
   -   To further speed up simulation, consider
          add ++aps on command line
~~~~~~~~~~~~~~~~~~~~~~~~~~~~~~~~~


During simulation, the CPU load for active processors is :
        Spectre  0 (30.0 %)      1 (1.5 %)       2 (6.0 %)       3 (17.5 %)
                 4 (58.4 %)      5 (2.0 %)       6 (11.6 %)      7 (3.5 %)
                 8 (6.0 %)       9 (11.4 %)     10 (6.5 %)      11 (96.5 %)
                12 (13.3 %)     13 (96.5 %)     14 (1.0 %)
        Other
Initial condition solution time: CPU = 7.327 ms, elapsed = 3.67117 ms.
Intrinsic tran analysis time:    CPU = 156.89 ms, elapsed = 78.8879 ms.
Total time required for tran analysis `tran': CPU = 176.835 ms, elapsed = 88.846 ms.
Time accumulated: CPU = 4.02722 s, elapsed = 2.16702 s.
Peak resident memory used = 100 Mbytes.


Notice from spectre.
    14 notices suppressed.

finalTimeOP: writing operating point information to rawfile.

Opening the PSF file ../psf/finalTimeOP.info ...
modelParameter: writing model parameter values to rawfile.

Opening the PSF file ../psf/modelParameter.info ...
element: writing instance parameter values to rawfile.

Opening the PSF file ../psf/element.info ...
outputParameter: writing output parameter values to rawfile.

Opening the PSF file ../psf/outputParameter.info ...
designParamVals: writing netlist parameters to rawfile.

Opening the PSFASCII file ../psf/designParamVals.info ...
primitives: writing primitives to rawfile.

Opening the PSFASCII file ../psf/primitives.info.primitives ...
subckts: writing subcircuits to rawfile.

Opening the PSFASCII file ../psf/subckts.info.subckts ...

Aggregate audit (11:26:21 AM, Thur Jun 18, 2026):
Time used: CPU = 4.47 s, elapsed = 4.47 s, util. = 100%.
Time spent in licensing: elapsed = 73.7 ms.
Peak memory used = 105 Mbytes.
Simulation started at: 11:26:18 AM, Thur Jun 18, 2026, ended at: 11:26:21 AM, Thur Jun 18, 2026, with elapsed time (wall clock): 4.47 s.
spectre completes with 0 errors, 5 warnings, and 9 notices.
